REMARK  Name = 
REMARK  38 active torsions:
REMARK  status: ('A' for Active; 'I' for Inactive)
REMARK    1  A    between atoms: C_1  and  C_2
REMARK    2  A    between atoms: C_2  and  C_3
REMARK    3  A    between atoms: C_3  and  C_4
REMARK    4  A    between atoms: C_4  and  C_5
REMARK    5  A    between atoms: C_5  and  C_6
REMARK    6  A    between atoms: C_6  and  N_7
REMARK    7  A    between atoms: N_7  and  C_8
REMARK    8  A    between atoms: C_8  and  C_9
REMARK    9  A    between atoms: C_9  and  C_10
REMARK   10  A    between atoms: C_10  and  C_11
REMARK   11  A    between atoms: C_11  and  C_12
REMARK   12  A    between atoms: C_12  and  C_13
REMARK   13  A    between atoms: C_13  and  C_14
REMARK   14  A    between atoms: C_14  and  C_15
REMARK   15  A    between atoms: C_15  and  C_16
REMARK   16  A    between atoms: C_16  and  C_17
REMARK   17  A    between atoms: C_17  and  C_18
REMARK   18  A    between atoms: C_18  and  C_19
REMARK   19  A    between atoms: C_19  and  C_20
REMARK   20  A    between atoms: C_20  and  C_21
REMARK   21  A    between atoms: C_21  and  C_22
REMARK   22  A    between atoms: C_22  and  C_23
REMARK   23  A    between atoms: C_23  and  O_24
REMARK   24  A    between atoms: O_24  and  C_25
REMARK   25  A    between atoms: C_25  and  O_26
REMARK   26  A    between atoms: O_26  and  N_27
REMARK   27  A    between atoms: N_27  and  C_28
REMARK   28  A    between atoms: C_28  and  N_29
REMARK   29  A    between atoms: N_29  and  C_30
REMARK   30  A    between atoms: C_30  and  C_31
REMARK   31  A    between atoms: C_31  and  C_32
REMARK   32  A    between atoms: C_32  and  C_33
REMARK   33  A    between atoms: C_33  and  C_34
REMARK   34  A    between atoms: C_34  and  O_35
REMARK   35  A    between atoms: O_35  and  C_36
REMARK   36  A    between atoms: C_36  and  C_37
REMARK   37  A    between atoms: C_37  and  O_38
REMARK   38  A    between atoms: O_38  and  C_39
REMARK                            x       y       z     vdW  Elec       q    Type
REMARK                         _______ _______ _______ _____ _____    ______ ____
ROOT
ATOM     20  C   UNL     1      -5.685  12.536  -1.606  0.00  0.00    +0.000 C 
ENDROOT
BRANCH  20  19
ATOM     19  C   UNL     1      -5.103  11.143  -1.877  0.00  0.00    +0.000 C 
BRANCH  19  18
ATOM     18  C   UNL     1      -3.576  11.115  -1.872  0.00  0.00    +0.000 C 
BRANCH  18  17
ATOM     17  C   UNL     1      -3.042   9.701  -2.096  0.00  0.00    +0.000 C 
BRANCH  17  16
ATOM     16  C   UNL     1      -1.516   9.709  -2.135  0.00  0.00    +0.000 C 
BRANCH  16  15
ATOM     15  C   UNL     1      -0.958   8.313  -2.389  0.00  0.00    +0.000 C 
BRANCH  15  14
ATOM     14  C   UNL     1       0.567   8.355  -2.438  0.00  0.00    +0.000 C 
BRANCH  14  13
ATOM     13  C   UNL     1       1.146   6.970  -2.696  0.00  0.00    +0.000 C 
BRANCH  13  12
ATOM     12  C   UNL     1       2.672   7.016  -2.727  0.00  0.00    +0.000 C 
BRANCH  12  11
ATOM     11  C   UNL     1       3.237   5.621  -2.973  0.00  0.00    +0.000 C 
BRANCH  11  10
ATOM     10  C   UNL     1       4.766   5.614  -2.993  0.00  0.00    +0.000 C 
BRANCH  10   9
ATOM      9  C   UNL     1       5.269   4.185  -3.214  0.00  0.00    +0.000 C 
BRANCH   9   8
ATOM      8  C   UNL     1       6.792   4.064  -3.315  0.00  0.00    +0.000 C 
BRANCH   8   7
ATOM      7  N   UNL     1       7.434   4.463  -2.067  0.00  0.00    +0.000 NA
ATOM     40  H   UNL     1       7.022   3.948  -1.289  0.00  0.00    +0.000 HD
BRANCH   7   6
ATOM      6  C   UNL     1       8.880   4.233  -2.094  0.00  0.00    +0.000 C 
BRANCH   6   5
ATOM      5  C   UNL     1       9.453   4.711  -0.760  0.00  0.00    +0.000 C 
BRANCH   5   4
ATOM      4  C   UNL     1      10.965   4.509  -0.635  0.00  0.00    +0.000 C 
BRANCH   4   3
ATOM      3  C   UNL     1      11.418   4.952   0.760  0.00  0.00    +0.000 C 
BRANCH   3   2
ATOM      1  C   UNL     1      13.308   5.288   2.371  0.00  0.00    +0.000 C 
ATOM      2  C   UNL     1      12.923   4.821   0.973  0.00  0.00    +0.000 C 
ENDBRANCH   3   2
ENDBRANCH   4   3
ENDBRANCH   5   4
ENDBRANCH   6   5
ENDBRANCH   7   6
ENDBRANCH   8   7
ENDBRANCH   9   8
ENDBRANCH  10   9
ENDBRANCH  11  10
ENDBRANCH  12  11
ENDBRANCH  13  12
ENDBRANCH  14  13
ENDBRANCH  15  14
ENDBRANCH  16  15
ENDBRANCH  17  16
ENDBRANCH  18  17
ENDBRANCH  19  18
ENDBRANCH  20  19
BRANCH  20  21
ATOM     21  C   UNL     1      -5.336  13.591  -2.670  0.00  0.00    +0.000 C 
BRANCH  21  22
ATOM     22  C   UNL     1      -6.006  14.936  -2.361  0.00  0.00    +0.000 C 
BRANCH  22  23
ATOM     23  C   UNL     1      -5.682  16.039  -3.380  0.00  0.00    +0.000 C 
BRANCH  23  24
ATOM     24  O   UNL     1      -6.511  17.166  -3.087  0.00  0.00    +0.000 OA
BRANCH  24  25
ATOM     25  C   UNL     1      -6.076  18.391  -3.688  0.00  0.00    +0.000 C 
BRANCH  25  26
ATOM     26  O   UNL     1      -6.387  18.505  -5.090  0.00  0.00    +0.000 OA
BRANCH  26  27
ATOM     27  N   UNL     1      -5.890  19.800  -5.594  0.00  0.00    +0.000 NA
ATOM     41  H   UNL     1      -6.557  20.466  -5.197  0.00  0.00    +0.000 HD
BRANCH  27  28
ATOM     28  C   UNL     1      -6.164  19.803  -7.025  0.00  0.00    +0.000 C 
BRANCH  28  29
ATOM     29  N   UNL     1      -5.852  21.111  -7.579  0.00  0.00    +0.000 NA
ATOM     42  H   UNL     1      -6.172  21.122  -8.544  0.00  0.00    +0.000 HD
BRANCH  29  30
ATOM     30  C   UNL     1      -4.434  21.507  -7.563  0.00  0.00    +0.000 C 
BRANCH  30  31
ATOM     31  C   UNL     1      -3.515  20.609  -8.400  0.00  0.00    +0.000 C 
BRANCH  31  32
ATOM     32  C   UNL     1      -2.109  21.184  -8.653  0.00  0.00    +0.000 C 
BRANCH  32  33
ATOM     33  C   UNL     1      -1.174  21.344  -7.449  0.00  0.00    +0.000 C 
BRANCH  33  34
ATOM     34  C   UNL     1      -0.918  20.056  -6.670  0.00  0.00    +0.000 C 
BRANCH  34  35
ATOM     35  O   UNL     1       0.066  20.318  -5.665  0.00  0.00    +0.000 OA
BRANCH  35  36
ATOM     36  C   UNL     1       0.316  19.164  -4.857  0.00  0.00    +0.000 C 
BRANCH  36  37
ATOM     37  C   UNL     1       1.355  19.499  -3.789  0.00  0.00    +0.000 C 
BRANCH  37  38
ATOM     38  O   UNL     1       1.561  18.366  -2.943  0.00  0.00    +0.000 OA
ATOM     39  C   UNL     1       2.523  18.644  -1.931  0.00  0.00    +0.000 C 
ENDBRANCH  37  38
ENDBRANCH  36  37
ENDBRANCH  35  36
ENDBRANCH  34  35
ENDBRANCH  33  34
ENDBRANCH  32  33
ENDBRANCH  31  32
ENDBRANCH  30  31
ENDBRANCH  29  30
ENDBRANCH  28  29
ENDBRANCH  27  28
ENDBRANCH  26  27
ENDBRANCH  25  26
ENDBRANCH  24  25
ENDBRANCH  23  24
ENDBRANCH  22  23
ENDBRANCH  21  22
ENDBRANCH  20  21
TORSDOF 36
