REMARK  Name = N1C2C3C4C5NC6C7C6C5(C13)C2N47 c1c2c[nH]c(nn3cnc(c#1)c3)-s-2 N=c1-c2cnn-1cnccc(=O)c2 C=Nn1-c2cccconc-1[nH]c2 Cn1[nH]c2c(=O)oc=2c2c1N=NC2 c1c#cc2oc(ccc#1)c1c2CN1 c1cnnc2oc(cc#1)C1(CC1)C2 c1cnnc2oc(cc#1)CC21CO1 c1cc2nc3nc(ccc1[nH]2)s[nH]3 N1=C2NOC3C4OC5OC4C2C53N1 C1#CCN=c2ccn3c(ccn2-3)=C1 c1cc2c(on3cc4c(c23)OC4)s1 C1C2OC3C4N=C5SN=NN5C43C12 Cn1c2nc3c1C(O)=C1NNC2C13 O=S1(=O)C=C2CC(O)=C2C2=C1CN2 OC12C3CC4C5C6=CC(C5C31)C42O6 c1c2c(nc3c4c(cn13)OC4)NC2 CC1C2Nc3c4ncnc-4sn3C12 OC1=CC(O)=C(Cl)C2=C(Cl)C1=NC2 C1CC12C1C3C4C5C6NC42C(C65)N31 O=C1CC2(O)Cc3[nH]c(c2c3Cl)O1 CC12OC3C4NC5C6C(NC51C43)C62 C=C1C(N)C23CC14ONC2=C4N=N3 C1=C2OC3C45C=C2C2C4CC(C5)C123 C1=c2cnc3n2C(=NN1)C1NC1C=3 O=C1C2C3C4C5C6=CC4C(C6)(C15)N23 CC1=C(C(=O)N=O)C2=C(CN2)NN1 C1=c2ccc3c(o[nH]c2=3)=NOCC1 OC1=Cc2sc3cc2C12OC=CC32 C=c1ncc2[nH]n3c(c1=2)=NCCC3 C=C1OCC2(O)Cc3sc2c1c3O N=C1OCc2ncc3n[nH]cc1c2-3 N1C2C3NC4C5C(C12)C1NC3C1C45 CC(=O)N1NC(C(C)C)=C(N=N)O1 C1C2C3=C4CC5C6C4C(O3)C2C1N56 C1=C2C(=Nc3cc4n(c32)CC4)NC1 C1C2N=C3C4=NC5CC5N4NN3C12 OC1C23NCC4C2NC2C3=NOC241 N=c1c#cc2c(N)cc(ncn1)-n=2 O=C1C=CNC1=C1C=C(O)N(O)N1 CC12C3C4C5NCCC5(C5C1N45)C32 CC12C3OC45CN6C(C36)C4C1C2O5 COCc1cc2o[nH]cc(O)c1s2 CN1C2=NCCC2=C([N+](=O)[O-])N1N NC12C3CC4N(C5C6CNC41C65)C32 CC12C3C4C5C6OCC1(C5CN32)C64 C=C1CN=C2C1=C([N+](=O)[O-])SN2N CC(=CC=C1NN(C)OC1=O)N=O OCc1cn[nH]c2c(oc1)N=NC2 C1=CCc2nnc3n(scc2-3)NC1 C1C2C3OC4C5=NC(C12)(C43)C1CN51 O=C1C2C3C4C5C6C(N24)C1(O)C3N56 CC12OCC34C5CC6C(C63)N(C51)C24 c1cc2oc1CNN=C1NC2=NS1 C=c1c2cc[nH]ncc(C)c1[nH]n2 O=C1NC(=S)n2c3c[nH]cnc-3c21 C1OC2C3C4OC5C6CC1(C52)C3C64 C=C1N=C2CC3=C4CC(CC14N2)O3 C1=NN=C2NC=C(NC3(C1)CC3)S2 C1C2N=C3C4=C5CC3(CC2C14)NN5 Nc1[nH]c2c(O)c(=O)c1C1(CO1)C2 C1OC23C4NC15CC4=C(C1NC12)C53 C1=NC=NCC2OC3=C2NSC3=N1 NC(=O)c1oc(=CO)c2c1N=NC=2 O=c1nc2n(c3c1=C(O)CN=3)CC2 Oc1c2oc3c(O)c[nH]c3c1cs2 C1=CC23C4=NC5CC2OC1C53ON4 C1C2OC3=C(C4=NC5CC5N4O3)C12 CC1c2sc3c(O)c2C2C3C(=O)C12 C1C2C3C4CC5(NC(=N4)NNC35)C12 C1=C2CN3C4COC5(C4)OC2CC135 NC12C=CC34CC5C6C(C63)N(C51)C24 c1[nH]nc2c3c(cnc1-3)N=NCC2 CC12CC3=C(NCC(O)(C1)C3=O)N2 CC12C3C4C5C6CCC1(CN5C32)C64 O=c1nnc2n3c(c(O)[nH]c1=2)CC3 CC12CC34CC5C6C(O3)C1C2C4N56 C1=C2C3C4C5NC5C25CN=C1N5C34 CC1CC2C3C4C=C5C(CCC513)N42 NC12Cc3c4c(cn3C(C1)C2)OC4 C1C2N3C4CC25C(C43)N1CC51CC1 NC12C=CC34OC5C(=C31)C=CC52O4 NNC1=C2OC3C(C1)C1CN=C2C13 CC1ONc2c1cc1c(O)c2CO1 C=C1N2C(=NS1(=O)=O)SC(C)=C2O CC1C2CC3=NSC(=NNC1C2)S3 c1oc2cc(cc3cc1OC3)OC2 C=c1ccc#cc2[nH]nc([nH]1)c2Cl CC1C2C3=C4C=CNN4OC3=NN12 C1OC2C3CC4C5COC42OC5=C13 Cn1c2c(Cl)c3c1C(C)(C2)ON=C3 N#CC1NC2=C1C(=CO)C(=O)N=N2 N=C1OCC2=c3c(cnn31)=CNC2 Cc1c[nH][nH]c(N=N)cc(C)c1N CC(O)=C1C(=O)C(C)=C2CC(=O)N21 NC1=C2CCN2C(=C(O)CO)C1=O C1=C2NC(=NOCc3nc2cs3)S1 CC1=C(Cl)C2=NC3C(N2S1)C3(C)O Cc1ccoc2c(=O)[nH]c(=O)c=2n1 OC12CN3CC4CC35C(O4)OC1C25 C=c1ncc2[nH]c3n(c1=2)CCN=3 C#CC12Cc3[nH]c1c(c3Cl)C=CO2 C1=NN=C2SC(=C3CCN23)OCC1 C=C(C=O)N1NNC(CC)=C1N=O CC(=O)C1=CC(C)=C(N=O)N(O)N1 CN1CC23N=C4C5C(C1C2N4O)C53 CC12Cc3c4oc(c3O)C(C)(N1)C42 C1C2=NSC(=NOC3COC1C3)S2 Cc1nncc2[nH]oc(C)c-2on1 C1=CC2C(=C3CC24CCN2C3C24)C1 NC12CN3CC14CC31C=CC(=C12)O4 CC=NNc1c(O)c2cc(Cl)c1[nH]2 C1=C2OC3C4C5C6NC(C26)C13CN54 CC(O)=Cc1c2c(Cl)c(n1C)CO2 C1=C2C3(CC4C5=NOC24CC53)OC1 N=NC=CC=C1C=CNC2=C1CC2 OC12C3C4C=CC5(C3CC3C1N35)C42 C1=CC2=CON3C(=NNC1)SN=C23 OC1C2CC3C4C2C2CC5C(N54)C123 CC1(CO)NC2=C1C(=N)OC2=CO C1=Nc2c3csc2C1=NOCCC3 NC1=CC(=CO)C2=C(CN2)S1(=O)=O CC1CC12CN1C(=N2)C(Cl)=CN1N CC12OC34C=C(CC3)C3=C4C1NC32 C=CC(=O)CN=NC1=C(C)NNO1 OC1CC2C=C3C4CC25OC4CC315 OC12C3C=C4C5C6C(C41)C6C2(O)C53 C1=C2C3C4N3C3COC4(C4NC14)C23 CCc1cnc2c(nc1=O)SNO2 CC12CC3N4C(C5C(N51)C31CC1)C42 Cc1c2c(Cl)cc3c1C(C)(CC3)O2 CC(=O)C1=C([N+](=O)[O-])C(=CO)N=N1 C1=NN=C2SN=C(S2)C2C=C1CC2 C1C2C3NC4C5C6NC1C4(NC65)C23 C1C2=NC34C5CC(C1C3CO5)C4N2 N=c1[nH]c2c(Cl)cc(Cl)c(o1)c2Cl c1cc2[nH]c3c4[nH]c(c3c2[nH]1)CC4 CN1c2oc3c(Cl)c2C2C3CC21 NC1C2C3CC4C5=NC1C4(ON5)C32 C1=C2C3C4C5OCC26NC1C3C6C54 OC1CC=C2ON3NN=CC3=NC21 C1C2CC34CC5C6C5C3(O2)C1CN64 C#CC1C(O)=C(O)c2cc(C)c1o2 C1=C2C3=NOC2COCCCN3S1 C1=NN2C3=COCCN=C1N2CC3 OC12C3=CNN=C1OC=CC2N=C3 CC1=C(O)C(Cl)=CC=C2CCN=C21 C1=CC23NCC4CC15OC42OC=C53 C#Cc1cc(=N)nc2c(n1)SNO2 C1C2CC34CC5C6C3OC(C12)C4N56 C1NC23CCC4(OC2)C3=C1C1NC14 C1=NN=C2SN=C(S2)C2C=C1CO2 OC1CC2(CCN3N=NSC3=N2)C1 N=C1C(=O)C(N)=NN=C2CC(O)=C12 C=Cc1ncnc2c(=N)ncc=2o1 C1=C2C3N4CCC35CC1CC2(C4)C5 C1=C2COC34C1C1C5C3NCC24N15 CC12COC3C4C5C(C6C(C31)N46)N52 CNC1=C2NCC2=NC2=NCCN21 C1=NC23CNC45CC(=CC24)C3C5N1 C=c1ccc2n[nH]cc3nnc1c2-3 C1NC23C4OC5C(C6NC4C1C62)C53 OC12C3OC45C6OC6C(OC4C31)C25 O=c1cccc2nc3[nH][nH][nH]c-3c1-2 C1=C2CCN3C2C2C3C3=NNC12C3 CC1=C2C3=NC1C1=CCCC12NN3 C1=C2C3=NC45CNCC14NC2C5N3 CC1C2=CC3=C4CC(CC41C=C2)O3 NC1C=C2C3CC4=CC35OC2C41O5 CC1=CC=C(O)C=C(C)C1=CN=N C1=NCCN=C2N=Cc3c2cnn31 O=C1OC(=CNO)C2=C1CN2 NC12C3OCC4(COCC45NC15)C32 C1CC2NN=C3C4C5C(N1)C32CN45 NC1CC2=C3CNN=C3C=NC=C21 Clc1cc2[nH]nc3nnoc(c1)c32 C1=NC2=NC3C=C(CCN1S2)OC3 CC1=CC2C3C4C5C6NC6C1(C25)N34 C1=C2C3C4C5NCC6C2N(C1C34)C65 Cc1o[nH]ccc2ncsc2c1C CCC1=C(O)ONC1=C(C=N)C=O N#CC1=C2CCN2C(=CO)C1=N CC1=NN=C2OC(=C(N)S2)CNC1 C#CCC1C(O)=C(O)c2ccc1o2 NC1C2C3C4c5nn[nH]c5N2C1C43 CC1(CN)C2C3=C(O)NSC3=NN21 CC1CC2C3=C4OC5CC(C35)N2C41 CC1=C(N=O)C(=O)NN2CC(O)=C12 Cc1nc2c3c(cc-2c[nH]1)CN=N3 OC1(C2(C3(C4CC4)CC3)CC2)CC1 Oc1c(-c2cn[nH]c2)c2ccc1s2 CN1CC(=O)C2=C3CCN3OC2=N1 C=C1COC2=C3C(=NN=CN13)SN2 C#CC1=NC(=CO)C2=C1OC2C#C CCN=C1C(=N)OC(=CO)C=C1O CC#CCc1[nH][nH]cnoc1N=O OC12CN3C1C1C4C5C=CC2(C43)N51 C1OC23OC4C5CC2(NN=C3N5)C14 C#Cc1nn2c(s1)c(C)c(=N)n2O NC1C23CCC14N=NC2=C4NNC3 O=C1CC2=C3CCN3N(O)C2=NO1 C1CC2CC(C2)N=C2N=C(NS2)O1 Oc1cc2oc1=NCC1CN1NC=2 CC(=CNNC1(C(N)=O)CC1)N=O C1=CC23OC(=C4C5C(OC42)C53)CO1 NC1=C2CC3C1C1NN=C2N(N)C31 C=c1c(=O)[nH]c2c(=CC=N)[nH][nH]c1=2 O=C1C=CCC12N=NC1=C2NNO1 NC12C=CC34CC5C(=C31)CCC52O4 NNC1=C2OC3C4CC2=NC4C13 C=CC1=C2N(C=CS2(=O)=O)N=NN1 O=CC=C1C=C(O)C=C(C=CO)N1 NC12C3OC4C(C5C1N=C3N5O)C42 Cc1cc2c(C)sc(nnco1)-n-2 C1=CC2C3N4C5C6CN6C(C54)C23O1 C1C2CN1C1C3OC4C5C(NC241)C35 C1=C2CCC3=NC(=NC1CO2)SN3 N#CC1Nc2c(C=CO)oc1c2Cl C#CC(=C1NNC=C1O)S(C)(=O)=O CC12C3=COC45C3OC1C4C=CC25 C1=C2CC3C4=CC5OC5C14N1C2C31 ON=C1NC2=NC3(CCN2S1)CC3 NCC1=CC(=O)C(=C2C=CON2)N1 C1=C2C34COCC2(NC1)C(=NN3)C4 C1C2C3OC4=NNC5C3N1CC425 CC1NC2C3C4C2C12C3CC1C2N14 C1OC2CC34CC(C2)(O1)C(=NO3)O4 C1C2C3CC14C1OC(C5NC51)C4N23 c1cc2ccc3c-2csc3cnn1 N1C2C3NC4C5OC5C5C1C(C23)C45 OC1C=C2C3C=C4C(=NCC42C1)N3 O=C1Cc2c(nc3c[nH]oc2-3)ON1 CCC(=O)C1=C(O)ONC1=CN=O CC1=NC(=CO)C2=C1CN2C1CC1 CCn1cccn[nH]c2c1N=NC2 CONC=Cc1c2oc(c1Cl)OC2 CC12OC3C4CC15C=C(C43)C2NC5 OC12C3NC4C5C3=CC3C(C1C42)N35 C1=C2CN3C4C2C2CN5C4C5C23C1 NC12C3OC1C1C4=C3C3C(C4)N1C32 OC1=CN2C(=NC34CC3CN=C24)S1 OC12CCCN3C=NC(=NC1C2)S3 CC12CN=C3NC(=CS3)C=CC1C2 O=C1Cc2c3c(c(C4CC4)n21)CC3 O=C1CN=C2ONC(=C2Cl)C=CN1 CC12OCC34C=C5C(C1C1C5N13)C24 Cn1nc(N)ccc2c(=O)ccc1=2 CC1=CC(=C(O)C(=O)C=CN)NN1 CC1NC1C1=C2CC(O)=C2C(=O)O1 C1OC2=C3C4CC5NC4(C2)CC35O1 Clc1c2oc3c1C1C(CC21)N3 OC1=C2NC(=NCCCCO2)N1O C=C1C2=C(NN1C=N)C1CC1C2=N N1C2C1C1C3C4OC5C(O4)C5C2N31 NC1C#CC2ONC=C(N=NC1)O2 CC1OC2=CC3CC4C5N4CC2C315 CON1N=NC(=CC=CO)C1=O CC1=C(C)C2=C(CC2)C(=N)C1=CO ON1CC23NC4CC25OC4C3N=C15 COc1o[nH]c2c1[nH]c1cncc12 CC1=Cc2[nH]ncoccc2C1=N NC12C3=C4CC15CC4C2(CC3)CN5 C1=NC=C2CNC2=C2CCON=C12 N=Cc1ccoc2c[nH]cn[nH]c1-2 C=C1OC23CC45C=C2CC14OC3O5 C1=CC2=c3c(n[nH]c3=NCC2)C=N1 C1C2C3=NOC4OC5CC(C12)C34C5 C1OC2C3C4=C1C1C5C(C4)C3C2N15 c1cn2c3coc2c1OCCCO3 CC1=CC2=C(NC(N=O)=C1)C(=O)C2 O=CC1C2NC=C3C12C=CS3(=O)=O C1=CC2=NN3CC3C2=C2OCC2=N1 C1=CC2C=C1C1=NNC(=NC=N2)S1 C1=C2OC3C14NC2C31CNN=C4N1 C1C2NCC34C5NC5C5C(NC123)C54 NN=C1C2C3C4=CC5OCC41C5C32 CC12CC3NC4CC(=C(C43)C1N)O2 C1C2C3OC14CN1C5C2C3OC4C51 C1=CC2=C3N=CNNCC1=C2CO3 CC1C(O)=C(O)c2cc(Cl)c1[nH]2 C=C1Cc2c(C=C(C)O)oc1c2Cl NC1=C2C3=NOC4C(O1)C2C4N3N C1=NSC2=NC34C5CC(C5)C3C4N12 C1N=C2ONC3=C2C12CC1C(C2)C31 CN1N=C2C3C4C1CC(N2O)C34O C1C2C3CC45OC6C(C1C24)C6C5O3 CC12C=CN3C1(CCN2)CS3(=O)=O C1OC23CC45CNC(=N4)C2C1C5O3 CC1C=CON2C=C(Cl)C(=NO1)S2 N=CN(O)C1CC2=C1N=NC2=CO C1=CC2On3cc4c(c3C2=C1)NC4 COC12C3C4=NC(C(C)C1N4O)C32 CC12CC3(C)C4=CCC35C=C4C1N25 CC12C3CC4C5C6C3=CC(C65)N1C42 C1C2C3OC4C5CC26CN1C3C6C54 N=C1C(=CO)N2CC(CO)C2=C1O C1C2C3NNC4=NC5CN2C1C53O4 C1=NN2NCC3CC(CN=C2O1)C3 C=CC(O)=C1C(=N)ON(OC)C1=O n1nc2c(o1)C1C3OC4C(O3)C1C24 C1=C2CC34CC5C6NC5C13C6C2N4 Cn1c(C=CO)c2c(O)c1C1OC21 O=c1nc2c(c(=CO)o1)=NCC2O C1=C2C3OCC4(OC5C(O4)C25)C1O3 C1CC23COC4C15CNC42CNC53 O=Nc1ncsc1C1=CC=CNN1 ON1C2=NC3C4CC5C4CC(C2)C531 CON1N=CC(=O)C1=C(C)C=CO CC(=O)C=CC=C1NNC=C1NO C1C2N=NC3=C4NOC5C4N(C13)C25 CC1CC23OC4C5OC2(ON=C53)C14 N1C2C3NC4C5OC(C2C15)C34 C1=C2C3CC1NC14CN5C(C5C31)C24 CCC12C3CC4=C(CC(C41)N2C)O3 c1scc2sc(-c3nn[nH]n3)cc12 C1=C2COC34CC5C6C(C1C3C56)C24 COc1c#ccnnc2[nH]c1CO2 CC12NC3C4=C(C5C(C31)N5C4)C2N CC1=C2CCN2N2NC(=O)CN=C12 CC1=CNC2=C(NCC2)C1=CN=N CC1CCC23C4C5C=CC(C2N13)N54 CC12C3C4C5C6C1N6CC(N)(C54)C32 OC12C3=NNC45C3NC1C4OCC25 C=C1COC2=C3C(=NN=CN13)ON2 O=C1OC=C2C1=c1ccc(=CO)n12 CC12C3C4(N)CC(N5C1C54C)C32N NC1=C2C3=NC4CC(C1NN3)C24N N=C1OC2=NNCC2=CC(O)=C1Cl C1C2C3=C4CC5(NNC3=NC25)C1O4 CC1=C2C3C4CC5CC1CC25CC43 C1=C2OC3C14COC31CC=C2C1N4 C1C2Cn3nc4nnoc4c3OC12 CCC(=O)C(O)=C1ONC=C1C CN=C1C2C3C=C(C4C(C3)N24)N1C OC1=C2CCN2C2=NOCCC2=C1 C1C2CC34OC5OC13CC1C2C4C51 CC(O)=C1C=CC2=C(C1=O)N(C)C2 NC1C2C34CC5C(C3=CC12N)N5C4 N=c1c2ccc[nH]c(=N)n-2oc1=O CC1=CON2C(=C1O)N=NC1CC12 C=CC1=CNOC2CC(N=N1)C2=O N#CC=c1[nH]c2ccc(Cl)c1c2Cl C1OC1C1C2OC3C2C2=NC31CN2 c1noc2c1SC1=NCCCNN12 c1cc2ncn3oncc(n1)c23 C1CNc2nsc3c(snc23)NC1 CCC1CC2=C3C=CNN3OC2=N1 O=C1NC=C(O)C1=C1C=NC=C1O OC1C2OC34CC25OCC13C=C5O4 CC12NC3C4=C(CC31)C1=CC42NC1 Nn1[nH]cc2cc3c(c1-2)N=NCC3 CCN1C(O)=C(O)C(=O)C1=C(C)O C1=NC2C3CCNNC=C1C2CO3 OC1C2C3C4c5cnnn5C2C1N43 C1=C2C3C4CC2C2(C5CN(C5)C12)N43 CC1=C2C(C)CN2N2N=CON=C12 c1c[nH]c2ccc3nncc3c2n1 NC12C3OCC14C1=CC5C4N5C2C13 Cc1coc(C(O)=C2N=CN=N2)c1 ONc1c(O)c2cc(Cl)c1C1NC21 OC12C=CC3=CC4C1C1CC32C4O1 N=c1[nH][nH]cc(O)c2csc(c2)o1 C1=C2NCC3(CCN=C(N1)N2)CC3 OC1C23CC4OC5CC41C(=CO2)C53 O=c1[nH][nH]c2c1=C(O)C=NCC=2O NC1CCC23CC14CC(=C(C4)O2)O3 Clc1cc2sc1oc1c(Cl)c[nH]c21 C1C2=C3OC4CC35CN1C4(CO2)C5 C1C2=C3C4C1C4C1C4C2C2C3C2C41 C1C2C3C4C1C1C2C2C5C3C4N1C25 C1=CC2(C=C1)C13C=NNC21CCC3 NCC1=CNN=CC(=O)C1=CN=O CC1CC2C3=C(CC12)NN=CN=N3 CC12CC34C=C5CC3(OCC51O4)O2 CC1NC2C3C4=NC1(C(NN)=N4)C23 NC12CC3(O)C4CC3C3=C4C1CC32 C1CC23CC4C5OC2(ON=C5N3)C14 C1C2C3CC45CN1C1C2C(C3N4)C15 C1=CC23CC4NC2C2=C1C4(CO2)N3 C1=CC2COC(=CNNC=N1)C=N2 NC12CC3C=C1C1C4C5CC31C2N54 C1=NC2C3C4C5=CCC(ON1)(C52)C43 C=C1C2C=C3OC24CC12OC=C4C32 O=[N+]([O-])C1=C(Cl)C2=NCCN2N1 CC1C2C3C4=CNC(C32)C1S4(=O)=O c1c2nsc1CON=C1CC2=NO1 OC1C2C3C4NCC5C=CC(N23)C514 C1NC2C3C4CC5(C12)C3NC1C4C15 c1cn[nH]cc2c(nc1)C1NC1C2 NCC12CC3C4C5=NC(C41)C3(C2)N5 C=C1C2=C(N=CON2)N=NC1C=O C1=C2CC3C4CC5C(O1)OCC25N34 COC1(C)C2CC1NNC=CN=N2 C1CCC2C3C4=C(CN23)OC(C1)C4 ON=C1C2=C3C4C(CC4N4C1C34)O2 C1C2CC34CC5C6C(C2N3C56)C14 CC1=CCC(=O)N2C(N=O)=CNN12 C1=C2CC3NC4CC5CCC24C53O1 CNNC(C)=C1C=C(O)C(=N)C=N1 C1=C2CC(CC3OC3CN=N1)NN2 OCCC(NO)=C1C=NC(O)=C1O O=CNc1cc2oc1C(O)=C(O)C2 CC1OC23CC45CC2NC14C=C3O5 c1[nH]c2cc1NOCc1cc-2sn1 N=C1NC2C=C3C4NC25CC4OC135 O=Cc1c2c[nH]sc-2nc1N=O CC12C3OC4C5=CC(C1C=C53)C42 NC1C2=NSC(=NNC3CC1C3)S2 NC1C2C3=C4C1C2CNC1C(C3)C41 CC12CNc3c(cc4n3CC4)N1C2 NC1C2OCCN=C3NC(=CS3)C12 NC1CC2N3C4CC25C=C(C1C5)C43 C1=C(c2cc3[nH][nH]cc-3n2)OCC1 OC1C2CC3N=C4SN=NN4C2C31 C=C1C=C2C3=CC4C2C2C=CC13N24 C#CC1OC2=C1C(=CNO)OC2=O Cn1c2ccnc2c2c1c[nH]n2N C1=CC2N3C1C1C3CC3=COC12C3 C1=NC2=NCCOCC3=C1C2NN3 C1=C2OCC3(O1)OC1C4OC1C3=C24 NC1=CC(Cl)=CC=C2C=CON=C12 Oc1c2oc3c1C1(COC3OC1)C2 C1=C2CCC3C4CC5N(C4)C2CC135 CC12OC3C4OC3C13C=C4C2CO3 C1=C2C3OC4(CC1)C1NCC24NC31 C1=C2CC3C=C2C2(C1)C3=CC1OC12 CC12C3=NC=CC4(N3)C3C(OC41)C32 CC1CC=C2C3C4C5C4C21C1C3N51 c1nn2c3c1OCCOCC2=NC3 C1=C2CC34NC25COC13CN1C5C14 OC12C3=NNC45C3NCC4C1CC25 CC(N=O)=C1C=C(O)C(=O)N(C)O1 CC1(C(=CNO)N=O)CN1CC=O C1C2=C3CN4C2C2C4C(O3)C3C1N23 C1=C2CC34CC5C6OC3C2C6N5C14 CC1(C2=CNOC2=C(O)C=O)CN1 CCN=C1OC(=CO)C2=C1C(O)C2 OC1C23CC4OCC15C4C2CN5C3 CCC1NC2=C1C(=O)N=CC2=CO C1C2=C3CC4C(O2)C2C1OC(O3)C42 NC1=COC(=C(N)C=CO)C1=O CC1(O)CC(O)=C(O)c2ccc1s2 C1C2=NC34CN(CC3N2)C2(CC2)C14 C1=C2CCN(CCn3cnc1n3)N2 C1C2C3NC2C2C4C5NC12C3C54 Cn1c(=S)[nH]c2c1=CNCC=2N=O C=C1C2=C3C4C1C1CC3(CC2)CN14 C=C(O)C=C(N)c1c[nH]n(C)c1=N OC1C2C=CC3N4N=CSC4=NC123 C=C1C2C3C4C5=C(CN24)C1(O)C3C5 OC12C3OC4C(CC15C=C3CN5)C42 C=Cn1cnc2c[nH][nH]c-2ccn1 C1=CC2C=C1ON1C=CC(=NN2)O1 C1=CC23CC4COC5CC45C2(C1)N3 CC1C2C3N=C4CC5C3N1CC52N4 C=CN(C(=NN1CC1)NO)C1CC1 CC12C3C4CN5C6CC4C1N2C6C35 C1=C2CC34CC(CO1)(O2)C(=NO3)O4 C1C2C1C13CC4NN=C1C1C4C3N21 Nc1c2c(c3n1-c1nsnc1-3)CC2 C1NC23CN4C5C6NC(C1C52)C3C64 O=C1CN=NC2=C(C=CNN2O)C1 N#CC1C(O)C2=C3CON=C3SN21 c1cc2ncocnc-2ccnn1 C1=NN2C3=NC4(CCN5C3C54)C2C1 CN1C(=S)NC2=C(C=C1N=N)OC2 NCc1nncc2c([nH]o1)CC=C2 C1NC23CC4=C5CC2(C14)C1C5N1C3 CC(=O)C1CC2=NN(O)N(C)C2=N1 O=C1N=CC2=C(NC2)C1=CO N=CC1CC1c1nsnc1[N+](=O)[O-] CC12C3=NC4CC5C1OC5C42CN3 CC12OC1C1=C(C2=N)C(=O)CNN1 C1=C2CC34NCC5(OC=C2C53)OC14 OC1=Cc2sccc2C(O)=C(O)C1 CC1N2C3C2C2C4(C)COC12C3N4 C1CC23OC4C5NC2C(C54)C2C3N12 NCC12CC3C=C(OC(=O)O1)C2=C3 C1=C2CN3CC45CCC13C4C2=NO5 C1C2C3C4CC5(C1N4)C1CC1C3C25 OC12CCOc3c[nH]c(c31)N=NC2 CC1=C2OC(=NC2=O)C#CC=NN1 C=C1C2C3OC4C(=C5CC14CO5)C32 C1=C2NC(=NOCc3cnc2o3)O1 C1#CC23CC4C(COC1)C(N2)C4C3 CC1N2C(=NC1(C)C)C(O)=CN2C NC1C2CC3=C4C5C(C1C42N)N5C3 C=CC(=CNN1CCS1(=O)=O)N=O CC1=CC(Cl)=CC=C2CC(C)N=C12 COc1cc2c(C)cc1c(O)c2Cl C=C1C23OC=C4C2C2OCC14C2O3 C=C1CN2C=NN=C3SC=C(O1)N32 CC12CC34C=C5CC3(C=CC51N4)O2 CS(=O)(=O)C1=CNN(O)C1=CN=O CC12CN3C4CC15C=C(C43)C2CN5 O=Nc1ccc2nc[nH]c2c[nH]o1 C1=C2OCC3N4C5CC5OC(O1)C234 CC1(C2CN=C3C2=NSN3O)CN1 OC12CC3C4C5=CC3(OCC5)C1C42 NC1C2NC3=C(C12)N1CCN=C1N3 CC1C2C3=NC=CCCCC(N3)C12 C1=C2CC3C4CC5C(NC2=N4)C1N35 C1=C2OC3C1C1C3C=C2C1C1CC1 NC(=O)C1=C(N=O)C=CC=C(O)N1 C1=C2N=NC3CC4NCC2(NN1)C34 C1=C2CC3C4CN4C4CC1OC34O2 C1=NC2=NOCOCC3NCC2=C13 OC12C3OC4CCC3C43COC1C23 CC1OC2=C3C4(CC2)CCC31CO4 CC1C2C3C4=NN5CC5C2(CN13)O4 CC1OC2C3CC4=CC35CC2C41N5 N=C1OCC23C4=COC2C2C4C2N13 CC1=CC2C3C4=C5CC3N2C15CO4 Oc1[nH]c2c(c3cnnc1-3)CC=C2 CC1Cc2c3nc(NO)nc-3on21 OC1C2C=C3C(=N2)NC2=CC31NC2 C1=NC=c2c(nn3c2=CCN=C3)O1 CC1ON=C2C=C3OCC3=NC=C21 CC1=NC2=C(CN2)C(=O)C1=CNO N=C1NC=C2C34C=CC12C(=NC3)N4 C1=C2CC3C4CN4C14C(CCC34)O2 OCC12OC3C=C(C1=C3)C1CC1O2 O=c1[nH]c(=O)c(=O)c2[nH]cc[nH]c1=2 OC1C2C3C4C5=NC(C=NN5)(C14)C23 CC1C2=NC3C14CNC3(C)C(C4)N2 NC12CN3C4C5C1=NNC2(C5O)C43 CC1C2C3COC4(OCC5CC514)C32 CC12C3COC45C3C=CC4C1OC25 COC(C=CO)=C1C(=O)C=CN1O CC1=C2C=CC34CC(C=C23)(CO4)C1 CNC1C2C3C4(O)C1C1C(N12)C34O CN1Cc2ccc(o2)C(O)=CN1 C1N=C2Sc3nnoc3N2C2CC12 NC1=C2C3C4CC3C(C1)(O4)S2(=O)=O NN1C23CNCC2(C=CS1(=O)=O)C3 C#CCc1cccc(N=N)[nH][nH]c1 CC1=C2C3=NC4CC(C1NN3)C24N C1=CC23CC4C(C2)C4c2csc1c23 NC12C3=CC4OC1C1CC3(CC12)O4 CC12C3=CCC14CC1C(C5C3C54)N12 CC(O)CC1OC2=C1C=NC2=CO OC=C1N=CC2=C1C1(C=NOC1)N2 C1=C2C3C4C3N(C1)C21C2CC2CC41 C1C2OC3=NN=C4NC5C1C5C2C43 C1=CC23OC=C4C2C2CC4(O3)C1N2 CC12C3C4=C5CC3N1C5C1C(C4)C12 O=C1CC2(O)C3C1=C1NC3C2C1O C1=C2C3=CCOC45CCC1(OC24)C35 CC1=CC2C3(CC4C(O)(C3)C24N)O1 CC1N2CC3N=C4CC2CC31NN4 O=C1NC2=C1C=NS(=O)(=O)C2=CO CN1C2C3C4N=C5CCC(N5)(C32)C41 OC12CC34CC1NC31C=CC4C=C21 CC12OC3C4=NC1C3(NN4)C1OC12 C#CC1=C2CC(=CC=O)C=C2NN1 CC1CN=C2NC(=C(O)O2)N=CN1 C1=CC23C4CC4C45OC(C1C42)C3O5 C#CC#CC1CN(C)NC=CN=N1 C=C1N=C2NCC3OCOC(=C23)N1 O=NC=C1C=C(O)N=CC(=O)N1 C1=CC2C3N=C4C=NSN4NC1C23 C1NC2=NC3C4C5CC(O2)(C14)C3N5 CC1=CN2C(=NC1(C)C)C=NN2O CCC(N=N)=C1C=NN=CC(O)=C1 C=C(N)C1=C(C)N=CC(=CO)C1=O C=C1C2C3C2C24C=CC(=C2)C3C14N Cc1c(C)c2c(O)c(c1O)N1CC21 C1=COC2=CSC(=NNC=N1)S2 N=c1cc2c3c([nH]cc-2[nH]1)NC3=O C1C2=NCC3COC4C1NCC34N2 C1CC23OC4C(=C5CC4C2O5)C3O1 C1C2C3CN4C5CC1C4(C1NC51)C23 Cc1cc2[nH]c(=N)oc1c(O)c2O OC12CC1C=CCNc1c[nH]c2n1 CC1C2(C)N(C=CS2(=O)=O)S1(=O)=O CCN1C2C3=CC4C5N4C2C1C35O Cn1nnc2nnc3c-2c1CCC3 C1=CC2=NOC3(C2=N1)C1OCOC13 C1C2C3NC4C(C5OC14C1OC51)C23 CC12C3=C4C(=O)C(C5C4N51)C2CO3 Cc1cc2c(cc1=CO)NN=CC=2 C1=C2CC3N4CC4C4C1CCC43O2 CC12N=C3NOC4(O3)C3C(NC14)C32 C=C1CC2C3C4=NOC15C4OC3C25 C1OCC2C3CN=C(C4CC1O4)N32 Cc1cc2c3c(n1)OCC3=CNN2 CC(c1c2c(cn1N)NC2)C1CC1 CC1(C)CCCCN2N=NC(=N1)O2 CC12OCC3NN=C4C3C1C2N4N O=C1NC2=C3CC(O2)C2=CC=CC123 C1C2C3NC34C3NC5CC4(CC53)N12 C=C1C2C3=C4OC(C2C=C3)C1C4O C1OC2C3C2C2N4CC5OC5C24C13 CCC(=CC1=C(NO)CN=N1)NC C1=C2OC34C=C2C(C3)(O1)C1CN1C4 C1=NC2=NCc3ccn(c3)OC1=C2 C#CCC(O)=C1NC(O)=C(N)C1=O CC1N2CC34NN=C5C=C3C2CC514 CN1N=CN=C2C1=CNC1=C2OC1 CC1NC2=C1C(=O)C=CC2=CO NC1=CC(=O)C(=CO)C2=C1C(=O)O2 CC1CCC(C)N=C2N=NN(C1)O2 C1=C2C3=NC4C1C(C1NCC21)C4N3 C1C2=C3CC4C(O3)C3C1OC2CN43 CC12NC3CC45C=C(C(CC41)N5)C32 Oc1[nH]sc2nc3c(ccn3O)c1-2 C1=C2CN=C3COC=C(OCO1)N23 O=NC1=c2c(cccc2=CO)CC1 Cn1c2c(Cl)c(O)c1C1(C)CCC21 CC12C3=C4CN1C(C2CN3)S4(=O)=O CC(C)C1C=CN2C(=N1)C=NN2O C=c1c(N=N)cnc2c1=NNC=C2 CC1C23CC4=C(COC41C=NO2)O3 OC1C2C3NC4CNC35CN2CC415 NC12C=C3C4C5CCC1(C3NC2)N54 CC12CC34NC5=NC(C1C3N5)C4O2 CONC1=C2C(O)=CN=C2OC1 O=CC1NC2C3=NCC4CC(C12)N34 OC12CC3C1C1=NC4CC2CC43N1 NC1COC2C3=C4CCC31NC2C4 N=C1N=C2C(=NN3C4COCC243)O1 CC1COC2=C(O)C=NC2=CNO1 O=C1C2=C3C4OC5C4NC3C15CO2 C1C2OC34C5NC5C5CC13OC2C54 C=NN1OC2=NN3CC3CC2=C1O CNC1=C2CCC3C4N=C2NC4C13 C1=C2CCC13OC1C=C(C2)C3=C1 CC12OCC34C(O1)C(=CC23)C1OC14 O=c1oc2c3c(c(=O)[nH]c2s1)CN3 Cc1cc2[nH]nc[nH]cc(N)c2s1 CC12C3C=CC4C3=C3CCC(C31)C42 C1CC12C1OCC34NN=C(OC23)C14 CC1=CC2=C3C(=NN=CC13)N=NN2 OC12C=C3OC14C1OC5C1C2C3C54 NC12CC34C=C1C1=CCC2(NC3)C14 C1C2C3C4C3C3(CC3)C3C(CN12)N43 CC12C3C4=C5CC3N1C5C1OC4C12 O=CCc1cnc2c(n1)ONO2 C1C2NCC34CC15NC1C(C5C23)C14 NN1C2=NC34CN(C2)C(C2NC23)C14 C1=NC2C3CC4(N1)C1OCC24NC31 C=C1COC2=C3CC(NC13C)C2C C1CC23OC4=NC5CC5N4C2C3O1 N=CCCCn1cc([N+](=O)[O-])nn1 CCOC1=CN2C(=NC1)C=NN2O CC1C23COC4CC15CC2CN5C43 Cn1sc(=O)c2c1SN1CCN=C21 CCC1=CC2=C3CC(C)(CC13C)O2 O=C1NN2OCC=C3CCN=C1N32 C=C1C2=CNN1C=NCCCN=C2 O=CC1=C2CCONC2=C(N=O)C1 CC1=NC=C(Cl)C=C2N=CON=C21 CN1C(=N)c2[nH]c(=O)c(Cl)c1c2Cl C1CC2(N1)C1=C3OCC4C3C(O1)C42 C1=C2CN=C1N1CCC(=N1)CCN2 ONC1=Cc2nc3s[nH]cc-3c2C1 O=S1(=O)N=C2NNC=C2C2=C1CC2 OC12C3=C4OC(C5C4C51)C2C=C3 C1=C2COC3=NN=C(C3)NC(=C1)C2 O=C1C2CCC13N1C(CC34CN4)C21 CC12C3C=CC14C(OC1C2NC14)O3 NC12C3CN4C5C6OCC4(C6C51)C32 C1=C2CCC13C1C2C2=CC4C1N4C23 NN1C2=NCCCC=CC1=C(O)S2 CC1=CC2C3C4C5C(C5N23)C2C1N24 OC1C2Oc3c(cnc4c3CO4)C12 C1=CNOC2C3CC(CN=C1)C2O3 C1=NNN2C=C3CN4CC4C3N=C12 CC12OC3=CC(O1)(C(=O)N3)C1NC12 c1csc(C2=C3NNCC3CC2)c1 CC1OC2CC3N=C4CC31C2N4O CC12C=C3C4=CC(N1)(C(=O)O4)C3=C2 C1=C2C3C4CC5(COC43)OC1CC25 C1=NON2CC3(N=C12)C1CNC3C1 NC1CC23C=C4C(C2)C(C3)N2C4C12 CN1CC2=C(N)N=C3CCN3C2=N1 O=C1C2C3C4=C5COC(C5O)(C14)C23 CC(=O)C1=CC(=CC=CN=O)NO1 C1=CC23CC4OC25CC4=CC15CN3 NC12CC3CC34N3CC(O)(C3)C14C2 CC1=C2N=C3CC4(CN3)NC1C=C24 NC12C3C4=CC1C1C(O4)C3=CCC12 CNN1N=CC(=NC(C)C)C1=CO OC12C3=CCC14C1C3N1C2C1CN14 C1=C2CCN2c2nncnc2O1 c1c[nH]c(C2C3C4CC5C2N5C43)n1 CCN(C)N1NC(=CO)C(=N)C1=O CC1=Cc2c(O)c1nc(N)c2Cl C1=NC2=NOCC3C2=C(O1)C1OC31 C1C2CC34C(=NC5CC53)N=C(N2)C14 O=c1cc2c3scc(O)c3sn2[nH]1 C1=CNNC2=NC3CC3C(C2)N=C1 CN=C1C=NC(=CO)C(C#N)=C1O CC12C3CC4N=C(NN5CC35)C1C42 CC1OC2C3=C4CCC5C4C2N5C31 NC1C2C3C4C5C4N(C32)C2C5C12N C1=CNNC2C(CN=C1)CC1OC12 CC1CN2N=C3NCC3=C(O)C2=N1 OC=C1C=C(O)C(c2cocn2)=N1 C=C1CN2C=C1C#CCONC2=S CC1C2CCNN=C3C=NN(O3)C12 Cn1c2cnc1=NCC1CC1CN=2 C1CC23CC14CCC21NN=C(O3)C41 CC1C2NCC3C4=NC(C32)C1N4O C1=CC23ON=CC4=C5CC1(OC52)C43 CN1OC2C3=CC4(OC3)ON=C1C24 CC12C=NN3C=NC(=NCC1C2)S3 C1N=C2C3NCC4OC43C3CC1N23 C1=CC23CC4(CC(=N1)N2)CC3CO4 O=C1C2C3=NC4C5C1C5C2C4N3O N=C(N)C12CN3C4CC(=C(C4)C31)O2 C1OC2C3=NOC45CC1(NC24)C3O5 C1C2=NC34CC(C5CN25)N(CC13)C4 C=C1OCC2c3c4c(nn3C12)CC4 ON1N=CC2=NOCc3ccc1n32 O=CCC(=O)C1=CONC=C1N=O CC1(C=O)N=NC2=C1C(=CO)NO2 O=c1cc2occc3csc(n1)n32 C1=NOC2C3OC14C1=CCC24CC13 C1=C2OC34C5CC(O5)C3C4C2=CC1 ON1CC2C3C#CCCNN=C1N32 CC1C2=NC3C=CC4(N2)C3COC14 CC1C2NC3C(NO)=C(C=N)C2C31 C1=CC23CN4C5C(=C2C1)C=CC3C54 C1=CC2C3N=C4SNC=C4N2C3C1 CC12C3CC4C5C6C1N6C(C32)C45N N#CC12CC3C4C5=CC(C41)C3(C2)O5 CC(O)=Cc1c2[nH]c(c1Cl)CNC2 CC(C)N1C2=NOCC2=C(O)N1N OC1C2C3=C4CC5(CO4)C3NC2C15 OC1CC2=C3CN4C(CN5C3C15)C24 NCC12CN3C4C=C(C(=NO1)C4)C32 C1C2CN1CC13ON=C(O1)C1C3N21 C1=NC2=NC3=NCC(CNC1=C2)N3 O=CC#CCN1NC=CC=C1N=O C1C2NC34CCC5(ON=C3C25)OC14 CCC1=C(N=O)ONC(C(=O)O)=C1 NNC=c1[nH]nc2c1=C(C=O)OC2 C1OC2ON=C3CC1(NN3)C21CC1 CC1=CC(O)=CC(=CN=N)C=C1 C=CON1SN=C2CC(C)(C)N=C21 ClC1=CC2=CC3=NCCN3N2C=C1 Cc1cnc2c(n1)C=CN(N)N2C CC1=NC=C2CN=CN=C2C(Cl)=C1 C1=CC23C4=NOC5(CC2NC45)C3C1 CC1=CC(=C(C)C=CO)C(=O)C=N1 CC1C2C(=N)n3cc4c(c3N12)CC4 C1=CC2C(=CC3C4C5CN(C5)C234)O1 CC12C3CN4C3C=CC43CNC1C23 C1=C2CNC3C4NN=C(C5OC15)C234 CC(=Cc1c(C)[nH]sc1=NN)N=O CC1C2NC3CC4=NC(C2=O)C31N4 CC1C2N=C3C(O)=C(O)N(N)N3C12 C=C(C)C12CC1OC(=CNN)N=N2 C1CCNc2oc(c3c2OC3)NC1 CON1C=C2C3=NOC(=O)C3=C2N1 ON=C1N=CC(Cl)=C2CCN=C2O1 O=CC1=C(N2CC2)ONC=C1N=O NCC12CN3C4C5C4N4C(C4C31)C52 CC1C2=NC3(CN2)CC12CC3=CO2 CONC(C)=C1NC(=O)C(O)=C1C C1CC23OC4CN5CC2C1C4(C5)O3 C1OC23C4C1NC21CC4C2C3N2C1 CC12CC3=C4CC5(ON=C3C51)OC42 NNC=Cc1c[nH]cc1C=CNN C=CC12C(=O)ONC1=CC=C2N=O OC1C2C=C3C(=NC4=CCC31O4)N2 NN1C2=CCC3C4C(=O)N=C1C4C23 CONC(=C1N=NOC1=O)C(C)C C1C2CC34CC5C(C(=N3)N2)N5CC14 C1=C2OCC34OC5=NNC23C5OC14 OC1CC2=C3OC(O2)C2N=CNC312 NC1=C(O)N2OCCN=C2C(Cl)=C1 CC1=C2C(=NC3C(N)C23)C(Cl)=CN1 C=c1oc2c[nH]ncncc1c2C C=C1C2CC34CCC25NC13C=C5C4 CC12CC3=NC14C1CC1C(O2)C4N3 N=C1C2C3CC4(CN32)C(N)CNN14 C1=CC2COC3(O1)C1C4CC23OC41 C1=C2C3(CCC24CCCN4C3)CO1 CC(=Cc1[nH]sc2ncnc1-2)CN CC(C)n1c2c(Cl)c(O)c1C(O)C2 CCCC1CC2=C1C(=O)NC2=CO C1C2=NCC3(CNN2)COC1OC3 ON1OC2=NOCC3CC3OC1=C2 CC1CCC2(O)C(=O)C3OC1=C2O3 CC1=C2CN=C3N=COC(=CO1)N32 NNC=CC=C1C=C(N)N(O)C1=O OC12C3CC45N=C(CC41)NC5C2O3 CC1N2CC3C4C2C2NN=CC21N34 CC12C3NC4C3C3C1C1CN3C42C1 N1C2C1C1OC2C2C3OC4C2C4C13 O=C1C(Cl)=CNC2=NC3CC(C3)N12 CC12COC3(CC4C5C3C1CN45)O2 O=C1C2=CC3C4CC5CC4C(C2)C153 CC1=CC(=C(C)NN)C(=O)C(N)=C1 C1=C2C3CC4C1C1C5OC(C25)C3N41 OC12CNC3=C(C1)C1=NC3(CN1)C2 O=C1C2C3=CC4C5C3=CC1(O)C5C24 CN1C(=O)C2=C3NC4C(C2)C1C4N3 C1C2C3CC45NC6C(C6C14)C2C5N3 OC12C=CC3C4C5OC31C(C=C2)C54 CC12c3[nH]nc(N)c3C(=N)C1C2N C=C1CC2C=C3C4C5C2C13CN45 C1NC2C3C4OC5=NOC(C5)(C13)C24 c1oc2cc1C1=NOC(=NNC2)C1 COC1c2oc(c(O)c2O)C12CC2 CC12CN1C13CC1(C2O)N1CC3C1 NC1Cc2c1cn1[nH]sc(=NO)c21 CC12C3OC45OC(CC14)CC5(N)C32 NNC1=NC2=C3CC4C5C3C1C2N45 NC1C2C3C4=CC5=CCCC5(C41)N32 CC(N=O)=C1C=CC(O)=CC(=N)N1 O=C1Oc2cn(-c3cc[nH]n3)nc21 C1=C2C3NC4(C1)C1=CCCC13CC24 C=c1oc2c(c1N=N)NC(=O)C=2N C1=CC2C3C4C1NC21C2CN(C32)C41 C1=C2CN3N=NSC3=NCC2CC1 NC1C2=C3C4C=COC3(C=C2)OC14 C=CC1=NCC2NC3C=CN1C32C CC1N2CC(C=C3C=CC4NC341)C2 CNC1C2=CN=NCC#CC1=NN2 CC1CC2(C)CC3(C)OC1=C2O3 Oc1cc2c(s1)n(O)c1cccn21 C1CN2C3C4=NC(C(CN4)N1)C32 O=C1C2C3=C4C1N2C1C3CC41O CN1C(=O)CC=C1C(=CNO)N=N C1C2N=C3NOC1C1(COC2C1)N3 CC12CON=C3NC=C(O3)N(C1)C2 CN1CC#CCN2NSC(=N1)C2=O CC1C2=NC3CC(C#CC1NN2)C3 NC1(C2C=CN3ON=CC3=N2)CC1 C1Oc2noc(C3C4CCC3O4)c21 C1=CC23NC45COC2(CCC3C4)C15 C1OC2C3NC4C3OC3=NNC42C13 NC12C3C4C5OC(=O)OC(C43)C1C52 C1C2C3=C4CC5CN5C4C2C2C1C32 CC1C(NO)=CC2=CN=NC=NC21 O=C1ON=CNC2C3C=C(CC32)O1 Clc1csc2c1SN1CC=NN=C21 N=NC1=CC(=C2C=CNO2)C(=O)N1 C1C2=C3CC45COC2C4C1C3N5 C1C2NC34CC5C(C3)C3C5C4C2N13 NN=CN1C2C3=C4C5NC3C5C2C41 NC12C=C3CC4C1C1CC4(O3)OC12 COC1=C(C(C)=N)C(=O)ONC=C1 OCC(O)=CC=C(O)c1cnc[nH]1 C=C1Cn2cccc2C(O)=C1O CC12CC34COC5(OC=C1C35)C2N4 NC1C2=CC3C(ON=COCO2)C13 CC1=NC2CC2N=CN2CC1=CN2 CC1(C)OC2=C1C(=CO)C(=O)C=C2 NC12C3COC14C(CN1C2CC14)N3 NC1Cn2c1c1n(c2=NO)C(=O)C1 Cc1occ2sc3n[nH]c(=S)n3c12 NC12CC1C=CCCc1c[nH]c2n1 NC1C2CC1(N=C1N=CC=N1)CN2 C1C2C3OC4(CC(=NO4)N4CC34)C12 C1=C2C3=NN=C4CCCC24NC1C3 CCC12OC3C4=NOC3C1C2NN4 CC12OC3=C(O1)C1C4C(C3)NC2C14 O=C1ON=C2C34C=CC12C(=NN3)C4 C1#CC2C3CC4C(C3=CCC=C1)N24 C1=C2C=C3OCCC4CC(C13)C4C2 C1=CC2C3CC45COC1C24NC3C5 C#CC12OCC1c1sc2c(Cl)c1O CC12CCCC3C4N=C(C1C42)N3N C1=CC23C=NNC4(C=C1C(=C4)O2)C3 C=C1C2C=C3C4C5NC3(C1O)C2C54 ClC1=C2CON=CCN=C(N=C1)N2 C1=CC23NC4(C=C2C(C4)C2NC23)C1 C=C1COC23C1C1C4C(C5C1C52)C43 C1=NN=C2CCN3CCC=C(O1)N23 CC1(O)C2=CC34CCC(C31)N(C2)C4 NC(C(=O)CC=O)=C1N=COC1=O NC1CC2(C=CN3N=CSC3=N2)C1 C=C1C23CC4C5N4C2CC(O3)C15O C1=C2C3OC4C3C3C5C2C4(C1)CN35 C=C(C1=NON2CCN=C12)C1CN1 CC1CC23NN=C(C4C2N14)C31CN1 C1=C2OC(C1)CCOc1nc2ns1 N#Cc1cc(=N)c2[nH]sc(=N)c2[nH]1 N=C1CN=C2C(N)=C3CCC3=CN12 CC1=CC23C=C4OC(C=C4O2)(C3)O1 N=C1NOC2C34CNC(=N3)C12OC4 CC1N2C3CC4=NCC1(CC2C3)N4 C1C2C3N=C4NC5CN(C12)C5C3O4 C=c1oc(=C)c2c(O)ccc1c2Cl C1=NN2C(=NO1)SC1=C2CNCC1 C1=CC23C4CCC25C1OC3C1C4C15 c1cc2c3n(c(C4CO4)c2o1)CC3 CC1C=C2C34C=CC(=C3)C2(CN4)N1 Oc1cn2ccc1nncocn2 O=CC=C1CNCC1=C1C=CNN1 Cn1c(O)cc2c1SN1CCN=C21 CC12C=CN=C3NNC4C(C=C1)C342 CN1OC2C3N=C1C1C=COC2C13 CC1=CC2=CNNCC(=O)CC1=N2 C1=C2C3C4C(C1)C1C4C4CC3N4C21 C#CC(C=O)C1=CC(=CN=O)NN1 c1nc2c(o1)=C1CC3CC3C1NN=2 C1=C2C3OCC4=C3C(NC4)C2NC1 CC12CC3=CC1C2COC=CC=C3 C1=C2C3=NOC24CC2CC4OC32O1 C1OC2C3C4=C1C1C5C4NC5C3C21 NC1=C2NC(=NNCC3CC2C3)N1 CC12CN3CC4C(=NNC41C3)NN2 CC1CC23COC14COC(=C24)CN3 C1=C2CC3C4CC4C14C(CCC34)O2 CC12C3=NOC1C1=CCC2(C1)ON3 CNC1=NC(OC2(OC)CC2)=CC1 NC1=CC2=C(C=NC1)CC=NN2 NC12CC3C4CCC15OC3(CC45)C2 C1C2OC34OC5C2CC13C1NC4C51 NC1=CC=C(O)Cn2c1c[nH]c2=O CC1CC2CC=C3C4(O)CN(C4)C312 O=[N+]([O-])C1=CC2=NOCC2=CN=C1 Cc1cc(=CO)n2oc(=N)c(N)c12 C=NN1NN=C2C1=NCC2C(=C)C C1=CC2CC3CC4N5C1C5CC24O3 CC1(c2c3c(cn2O)NC3)COC1 CCCON1N=CC(=O)C1=C(C)O CN1N=c2c(c(O)oc2=CO)C1=N c1nc2c(o1)NN(C1=NCCC1)O2 OC12C3CC(C#CC4CC1C2N4)O3 O=NC1=CC=CNN2C(C(=O)O)C12 C1=C2C3CC4C2C2=CCOC4(C3)C12 NC1CC12C1C3OC24OCC=C4C31 NC1C2=C3CC(CC=NOC1O3)O2 O=C1C2N=C3NOC14C=NNC2=C34 C1=CC2C3=CC45CC3C(CO4)(O1)C25 NC12CC34C=C1C1=NNC2(CN3)C14 Nc1ccc2c(c1=CO)=NNC=C2 CN1N=C2C3C4C1C2N(NC=N)C34 N=c1c2co[nH]c-2cc2c1NC2=O OC1C2NC3C4C5CCC24OC13C5 Cc1c2n(n3c(=S)[nH]nc13)CC2C OC1C23C=C4C(=NOC41CO2)CC3 C=C1OC23C=C4C(C)(CC2C14N)O3 C1=C2CCC3=NCC=C(OC1)N23 OC1=C(Cl)C2=NOCCN2C=C1Cl C1=NOC2=NOC34C=C2C1(C3)OC4 C1NCC2CC(C2)C2C3CC1=NN32 CC1C2CNC3=CNC(=NC1C2)O3 CC1OC2C3C4NCC35CC14C2N5 OC1=CC2=NC=NCC2=CC(Cl)=C1 C1OCC2CC2NN=C2SN=C1S2 NC1=C2C3(C=C1)CCC(C3)S2(=O)=O CC1=CC(Cl)=CN2C(=NO)CN=C12 C1=C2CC3OC4=COC(CC1)C24O3 CC12CC3N=C4CCC1CC3(C2)N4 NCC1=C2C=CON=C2SN1 NN1CC23C(C4CC2(O)C4)N3C1=S C1=C2CC3(O1)OCCC21CC3=CO1 C1=C2C3CC4(O1)OC1CCC24C1N3 N=C(N)C=C1NOC(CC=O)=C1O N=C1N=C2OCC=C3CN=C(O1)N32 O=C1C=C2NC3C4CC5C4C2NC153 OC12CCC3C4=NC(C1)C3(C2)NN4 C1NN=C2C1=NSN2CCC1CO1 CC1CCN2CCCN=NC=C1N2 C1=C2CC3CCCOC4OC2CC134 Cn1cc2occocnn1c2=N CCC(C=C(NO)C1CC1C)=NC C1=NNC2CC=C3C4CNC32C1C4 Clc1c2c(Cl)c3ccoc3c1CN2 C1NC2c3c1nnnc3CN1CC21 NC1CC2=CC3=NCC=CN3N=C21 CC1(C)C#CC(NN)=CN=NCC1 C=C1NCCCCc2cc(O)c1o2 CC1=CC23CC45NCC(C2C14)C5N3 CC1CC23NC4=NC2CC1C3NN4 NC12C3C4C5N4C1C1(CO1)C5(O)C32 CN1CC(=O)C=NN2C=CC(=N1)O2 CONc1[nH]ccc(=N)c1C=N CC1=C2C3(CO1)NC3C(=O)S2(=O)=O O=CC1C#CC2=NSC(=NOC1)S2 N#CC(=NCC=O)C(N)=CNO c1nnc(C2OC3=C(CNC3)O2)o1 CC1OC2C3=CC1C21CC2CC1C32 N#CC12CN1N=C1OC=CC(Cl)=C12 C#CC1C2C3NC4C5=CC(C42)N1C53 N=C1Cn2c(O)c3c(c2NN1)OC3 OC1C23C=C4C(COC41C=CO2)O3 N#Cc1cc2c[nH]cc(O)n-2c1=O C1=C2COCCC3C4OC3C2C=C14 NC1=C(O)CNC=Cc2n[nH]cc21 CC12C3=CC45C=C3CC1C(CO4)C52 C=C1CC23OC14OCC2=C4NC3=O CC12C3C4C5CC(O)C1(N5)C4CN32 Clc1cc2n(c1)NN1OCCN=C21 O=C1C2C3CC45ON=C(C2C14)C5O3 CC12OC3=NOC4(OCC=C14)C3O2 OCC12CC3C=C1C(=N3)NN1CC12 Cn1cnc2c1=CC(=N)C(=CO)C=2 NC12CCN3CCC4C(N)(CC1)C432 CC12C3C=C4C(CC(C1O)C42O)C3 C1=C2C3C4ON=C5C4C3OC25CC1 Cc1cc2cc(n[nH]2)o[nH]cc1N CC12C=C3C4C(C4(N)C1)C2(C)C3N C#CC1=C2C3=NC1C(N)C2(N)CN3 C=C1N=C2NCCC3=C2C(=NC3)N1 NC(=S)N1CC2=CC(Cl)=COC2=N1 C=C1C2C(=O)C3C(=N)N=C(C23)N1C O=C1CCCCN=NC2=CNON12 CNc1cc2[nH][nH]cc-2cc[nH]n1 C=CNc1nc(=O)[nH]cc1C(=C)N CC1=C(C)NC(=C(N)N=O)C(=O)N1 N=C1N=C2C3C1C(=O)C3C(=N)N2O CC12CC3C(=N)C=C(NO1)C32C=O O=C1C2=CC3C(CNCCCC2)N13 NCC12C3=NC4CC1(OCC42)ON3 C(=C1C2C3NC3C1C1NC12)C1CC1 CC12CC(N1)C13CC2C=C1N=CN3 C1ON=C2OC3=C(C4NC4C3)N2O1 O=C1CC2C(=C1NO)N=NC2CO N=c1[nH]n2c(cc3c(N)occ32)o1 O=C1OC2C3=CC45C=CC1(C3N4)C25 NC12CN3CC4=C(C31)C1NC4C12N Cc1nc2ccc(O)c(c2Cl)n1O C=c1cc2oc1=CC1CC(C#C2)C1 CC1=NCCCCC2CC1=CNO2 CCC1(C2N=NC3=C2NNC3)CN1 OC1=C(O)C2(CN2)c2ncn(O)c21 NC1C2NC3CC2C24CN2CCC314 C1=C2COC3(CCC14CCC=C43)O2 CC1=NC2=NN3C(C2=C1)C3C(C)O C1=Cc2c(cnc3nsnc23)NO1 CC1=CC2CCC3C4C5C1C23CN45 OC1=CC=Cc2c[nH]c(c2)C=C1O C1=CC2CC3CN=C1N23 CC1=NOC2C3N4C=NSC4=NC123 CCC1=C2CON=C2OC(O)=C1N CC12OC3C4(CCC31O)ON=C2O4 NC1C23CN4CC=CC14C(=NO2)O3 CC12CCC3(OC(N)=C(C1)C3=O)O2 C1=CC23N=C4N=CC=C4CC2C3C1 CC1=C2N=CC(N=N)=C2C(=O)N1 CCN(NC=CN=NC)C(C)=NC COC1CC2=C3CC(C)(CC31N)O2 C=NN1C2C3=C4C5OC3C5C2(N)C41 CC1CC2=C3C(=NC4CC34)N=CN21 C#CC1=CC=C(Cl)C2=NOCC2=N1 CC1C=C2C3=NNC24CNC31C4=O O=C1C2(O)C3C4CC3C13C=CC2N43 C1=CN2C(=NNC1)Sc1oncc12 ClC1=COc2n[nH]c3c2C1=NOC3 CC12NC3=NOC1(C)C1NC=C3C12 CC1CNC2=NSC(=NOC1)S2 C=C1C=NNC2=C(N=NC2(C)C)N1 CC12OC3C1CC1OC4=CC3C12C4 C1CC23CC4=C5OC2C(N1)C5C3C4 CC12C=C3C(=O)C14CC(C3N4)C2O C1=NC2C3OCC4(CNC=NC234)N1 C#CC12CC3C4OC1(C=C4O2)C3N Cc1nc2c3c(n1)N=CC3=NOC2 C1=CC23C4C=CC5C(NC52)C3C1=C4 CC12CC34COC(=C(O1)C3C2O)C4 CC12CC(C#CCc3nsc1n3)O2 CC1=C2C3=CC(C2N)N2C(C)C1C32 C1=CN=NC2CNCC2NNC=C1 C1=CCC2CN=C3C2=CON3NC1 C1C2C3C4C5OC1C1(CC1)C(C54)N23 O=C(O)CC1=CC(=CO)C(=O)N=N1 Cc1noc2c1NOC=C2C=CO CN1CC23CC45CC=C2C4CC3C15 CC1OC2C3CC4=C5COC41C2C53 NC1=CC(Cl)=C(N)C2=NC(=O)CN12 ONC1=C2C(O)=CN=C2CCC1 O=C1CNC12Cc1sc2c(O)c1Cl CN1CC2OC23C2(N)C4CC13CC42 c1sc2cc1CN=C1NN=C(N2)O1 CC1=C2NN=C3C4NC4CC32N=C1 OC=Cc1[nH]c2c(O)c1N1CC2C1 C1C2=NC34CNC1C(NC3)C4ON2 CC(=O)C1=C(C)NNC(N=O)=C1O NC12CC3C4C5C=CC41CC3(C2)O5 C1=C2C3=COC45COCC1(OC24)C35 OC12C3=CCCC1NNC2=NC=C3 C1OCC23C1C1CC24OCC3C1O4 CC12NC3C1N=C1CC3(NN1)C2O C#CC1=CNNC=NCCC1=N C1NC2=NC13CC1(CC4NC1C43)N2 C1=C2C3CC4C2C2N4CCOC12O3 CC1C2C3CC14N=C1CC3C2C4N1 CC12CN3C1C1=CC4CC2CC43C1 C1C2NC2C2C3C4C5C(CC1N34)N25 OC=C1NNC2(CC2)c2[nH]ccc21 CC1(N)C2N=C3SC(O)=C(O)N3C21 O=Nc1cn[nH]ccc2cc1CC2 C=Cc1cc2sc1OCC(O)=C2O CC1CN2C(=N)C(Cl)=CN=CC2=N1 CCCC1=CNC2=C(CN=N2)N=C1 OC1C2CC3=NC4(CCC(N3)C14)C2 CCC(C)C(O)=C1NNC(=O)C1=N C=NN1C2C(=O)N3C(=CC4CN43)C21 OC12C3NCC14C=C1CN4C3C2O1 CC12C3OC4(OC31)C1CN1C1CC142 CN1CC23COC4C(N2)C(=NC43)N1 CC12C3C4CC15CC1(O)C(C5N43)C12 N=Cn1[nH]c2c(N)cc(Cl)c1c2O C1CC2=C3C4C5CC3(CC2C1)CC54 N=C1NC=C2C=C(C=CN=O)N=C12 O=CN1C(=O)c2c(Cl)ccc1c2O C1=C2C3=C(C4CN4)C4C(O3)C(O1)C24 CC1CC2=CCNN3C=CC(=N1)N23 O=C1C2CN3CC4C5C=C(C23)C1N54 CC1C2=C3C4C(C2)C4NCC2C3N12 CN1C2C1C1CNC3=NCC2C31O C1C2=NCC34CC5C(O3)C1C5C4N2 C=C1C2N=C3NC4CC2CC14N3N C1=C2CN(C1)n1cc(cn1)OCO2 ONC1=CN=NCC2C=CCNC12 NC1=CC2=C(C=NC1)CCCON2 OC1C2CC3=CC24CC12C=CC4C32 CC12CN=CN1N=C1SNC(O)=C12 OC12C3OC4C5=C3OCC1N(C5)C42 C1=NNC2C3CNN4CCN=C4C132 C1=C2C3CC(C3)C3ONC(=N1)C2O3 C1=Cc2cn[nH]cccnc2OC1 C#CC(O)=C1C=NN(N=CC)C1=O CC12C3=NOCC1=NOC2=NNC3 C1=C2CCC3(C2)CC12C=C(CO2)O3 N#CCC1=C(C=N)C(=O)ONC=C1 NC(=O)C1=NC=C(O)C1=C(O)C=O C1=NOCc2ccc3c(con23)N1 C1C2CC3C4CC2C1C1=NC3C4N1 NC12C3=C4CC(O)(C1N4)C2OC3=O N=C1C(=O)NNC1=C(O)CC=O CC1ON=C2C34C=C(OC3)C21NC4 CC12C3=NOC1C1C(O)C=C(N3)C12 O=C1C2(O)C=C3C(C2)C2=NOC13C2 C1=CC23COC4(O2)C(C3)NCC4O1 CCCC(=O)C(=CNO)C(=N)CC C1=C2C3OC4C5C1C1C2C(O3)C1C45 OCC12C3C4OC5CN1C2C=C5C43 C1COC2=C3CCC(=NN1)N3OC2 CCC1=C(N=N)C(O)=CNC(=O)N1 NC1C2CC3C4C=C5CCC(N42)C513 NC1COC2C34CNC(=N3)C12OC4 C1=C2CC=C(C2)N=C2CN=C(N1)N2 C1OCC23COC4=C5OC(C1C52)C43 CC1=CN=NC2C3CN=C(NN1)C32 O=C1CC2=NOC13OC1C=C2C3=C1 C1=CNc2n[nH]c3cnnc(c23)C1 C1=C2CC3CC45NC(CC14)C2C5O3 OC1C2NN=C3N=C4SC=CN4C312 C=CCONC(=CN=NC)CC#N NC1=C(COC2CC2)C(=CO)N=C1 OC12CC#CC3=NCC(=NC1C2)N3 C1=C2CC3CC2C2(OCC4C1C42)O3 O=c1[nH]cnc2c1=NNC=CC=2O C=CC12C3OC1(C)C1=C3C3NC1C32 OC1C2CC3=CC24CC12OCC4C32 CC(O)=C1NC(=O)C(C)=C(N)C1=N CN=C1NC(=O)C(=N)C(=C(C)O)O1 C1C2OCC34C1OC1OC23COC14 C=CC12C3NC4C5=CC(C1NC53)C42 CC1C2OC34CC2N=C(C13)N(C)O4 C#CC1N=C2N3C(CC13)CC2(C)C N#CC=C1NC(C(N)=O)=C(C=N)O1 CC12CC3CC4C5N4CC(C1)C35O2 N=CN1CC2C3C1=C1CCN2C3C1 CC1C2C=C3CC4N5C1C2C3C45C CC1=CN2N=NC(=NCC#C1)N2C C#CC12CC3CC1=C(O3)C1NC1C2 NC1=CC=CNCc2csc1c2Cl OC1C2C3C2N2C4C5CC3C12CC54 CC1N2C3CC4=C(C3=O)C2C1(C)N4 C1OC23OC4CC25CC12CC5C4C23 CC1=NN=C2SNC(=C2N)COC1 CC1N2CC3CC4(C=COC31O4)C2 C=CC1C(O)c2c3cnnc-3on21 N=C1C2=C3OC4C2C(C4C3N)N1O CC1CC(NN)=CC(=N)C1C1CN1 NC1C2C3=C4CN(C3)C3CC(C43)C12 OC12CC3OC1C1NC4=NC2C31N4 OC1=c2c(oc3n[nH]cc23)=CC1 C=C1C2=NOC13CC1C=C(N2)C3O1 C1#CC2C=CC3OC(=CC3NC2)C1 C1CC2CCC3=NNC(=NC3C2)O1 C1CC2=C3CC(O2)C2=NOCC23O1 Oc1cc2c3nc[nH]cc-3nc2o1 C=C1OC2C3C1=C1C(C)C4C3N4C12 C1C2CC34C1NC1C5C(NC13)C4C25 O=C1NOC2C3N4N=CCC4=NC123 OC1CC2=C3C(CC2)C2=CCC31C2 CCC12C3N=C(C4=NOC3C41)N2C NC1C2=C3CCC45CCC1(OC24)C35 C#CC(O)=C1C(=O)C(N)=CN1O O=NC1=C2NNN=C2C(=O)C12CC2 CC1C2C3=CC4C(CN5C3CC25)N14 C1C2=C(C3=NN4CC4C3C2)C2NC12 CCc1cc2c(Cl)cc1c(Cl)c2O CC12NC3C1OC1C2=C2C=CC13C2 CC1OC2C3=C(CC12)NC(=O)C3=N CC12CN3CC4(N)C=C(O1)C3(C4)C2 C#CC1C2C(C=N)=CNOC12C=O NCc1c2[nH]oc(N)c-2cnc1=O CC1=CC(C(=O)N=N)=CNC(=O)N1 CONC=C1C(=O)NC(O)=C1OC CC12CC1NC1=NC(=CC1)CCN2 N#CC12C3=NCC1C1CNC(=N3)C12 ClC1=C2OC3CCC3N=C2OC=C1 N=C(N)C1CC2=C1C(=CO)OC2=O CC12ON=C3C1=CC(O2)C1(C)CN31 NN1C23CC2NC2CC23NS1(=O)=O CC12C=C3CC4N1C1CC4(CC12)O3 C=CC12C3C=C4C(=NC31)NC1C4C12 C#Cc1cc2n[nH]cn[nH]cc2[nH]1 C1=CC23C4CC5C4C4C=C(C1N42)C53 NCC1(O)C2=CC3CN4C3C2=CC41 NN1CC2C3N=C1C1CNCC3N12 O=CC1CC23C=C(C4C2N14)C1CN13 C1OC2C3NC4C2C2=NOC1(O2)C34 C1ON=C2N=C3CC4C1OC4C2N3 CC1C2ONC3=C(N=O)CCNC312 C1=C2CC34CC5C=C3C2C(C1)(C5)C4 C1=C2OCC1c1c2[nH]c2c1NOC2 C1N=C2OC3(OC1C1CC13)C1CN21 C1=CC23CC45ON=C2NC4C1C3O5 C1=CC23C=C4CC25C=CC1(C3)C5O4 C1CC23CC4=NC(C2)C2C1C3C2N4 CC12OC1C1CNC3CNC4C2C314 C1=CC23OC1C1C4C2ON=C3CN14 CCC1C=NNC=CC=C(C)N=N1 C1C2C3C4OC1C1(CN5CC5C41)N23 CC1C(N=N)=CC=C2NC(=O)N=C21 C=C1C23C=C4OCC1(CCO2)C4=C3 C=C1OC23C=CC45C=C(C1C42)C3O5 N=C1N=C2NC13C1COC3C(O2)O1 C1=CC2COC3OC(=C1)NC3=NN2 N=C1NC2C3C4CCC35OC2C14O5 C1OC2C1C1C3CC24C(=NNC14)O3 CCC1=NNOc2ncc(C)nc21 C=C1C2C3NC4C=CC35C1CN2C45 C#CC1=CC(N=O)=C(CC=O)NN1 N#Cc1c[nH]c2ccc1c(Cl)c2O O=CCC12C3CCC4C5C(C1N42)N53 CN=Nc1ccc(N)cc[nH]nc1 NC1=C(CC=O)N=CNC=C1N=O C=C1NCC=NNc2c(O)csc21 NC1C2=NC3C=CC4(N2)C1COC34 CCC(C)NC(C=CN=N)=CNN CC12C3CN3C34CCCC13C2NC4 COc1c(C)c2c[nH][nH]c-2c1N=N O=C1C=CC2=C(O)CCC=CON12 C1=C2CC3(CC(C4CO4)(CO3)C2)O1 NC12CC=C3CONC3=C1N=NC2 CC12CN3C1C1=C(C#N)C3(CN1)C2 C=CC1C2=C(NN=CN=N2)C2OC12 NC1C2C3CC14CCC1=C4C3C2O1 C1=C2COC3OC2C(=N1)NN1CC31 COC1=C(C)C(Cl)=CN2CCN=C12 C=CC12NNC3=NC1C1C3=CNC12 CC1=C(NNC=O)C2(C)CC2N=N1 C1=C2CC(C1)OCOc1cn2nn1 NCC1C(=O)N=C2N3CCC3=CN21 Oc1ccc[nH]oc2noc1c2O CN1CC(C=NC2(CN)CC2)=CN1 Cc1o[nH]c2cc3nc(=N)sn3c12 NC1C2C3OC45COC(OC24)C15O3 CCC1=C2NC=CN=C2CN=N1 CC1=C2C=NC=C3CCN=C(N1)N32 C=CC1C2CC=C3C12CNS3(=O)=O CC1=CC(=N)C(=O)C(=C(C)O)C=C1 NC1C23OCOC12C1C2OC3OC21 CC1C2(O)C=C3C(=C2)C12C=CC3C2 CN1C2C3C4=CC5CC(N)C41C5C32 CC1COC2(C)CC3OC2=C1C3O OC=CC(C=Cc1c[nH]cn1)=CO C1NC2=NC34COCC2N(C3)C1C4 CC1c2c(c3occn3c2O)C1N C=C1COC(=NNC=CN=O)C1=O C1=C2COC3CC4C2=CC2C1C3N42 NC1(C2=CCN=C3OC=NN23)CC1 C1=C(C2CN=C3ON=NN32)CCO1 CC12C=CC3NCC4N(CC1)C342 C=C1C2=CC3CC2=CC1COCO3 Cc1[nH]c2cc1NC1CC(C1)N=N2 NC1=CN=C2C(=NN3CCC23)C=N1 NC12CC=CC13NN=C1NC2C=C13 C1=C2NOC1=NNCc1cnc2o1 CC1C=NN=C2SN=C(NC1C)S2 N#CC(=O)C12CC1C(C=N)=CNN2 C=C1NC(C)Cc2[nH]ncc(=O)c21 OC1C2C3C4C1N2c1sncc1N34 CC(=O)C1CC2=C(NO1)C(C)N=N2 C=c1cnn2c1=C(O)C(=N)C2=CO NC1CC23CN4C5C2=NOC3(C1)C54 Cn1cc[nH]c2nc(cc1=N)C=N2 CC12CC3(C)C4CCC1=C4C1C2C13 C1C2NC3C1C1OC4=NNC2C43O1 C1=C2OCC2=NN2C1=NCC1CC12 C=c1c(=CC=CN=O)nc[nH]c1=O CC12CC3C4C3C13C=CC(C3=O)N42 OCCNC1=CONc2ccoc21 CC12C3C4OC5C(COC51C4=O)C32 CC1=CC2C3=NC4C(C1C24C)N3O OC12CC3=C4C1NC2C41C=C3CC1 ClC1=CON2OC=CCNN=C12 C1CC23OC4C5C4C2N1C5C31CO1 CC1c2c(c3ncsn3c2O)N1C O=C1C2CN3C2C2N=C4NOC12C43 NC12C3OC4C1C1CC4(N=CN1)C32 C1C2C1N1CC13c1n[nH]nc1OC23 CC1C2CC=C3C(N)C4CC32CN14 NC12CN3C4CC3C13ON=C(O3)C42 NC1(C23CN4CC(N2)C2C4C23)CC1 C=CC1=NC=C2CCN=C2C=C1O O=S1(=O)C=NNC=C2C=C(C=N2)O1 CN1CCN2C3=NCCCC3=NN12 C1=C2COC34C2=CC1C3N1CC4C1 OC=Cc1c2[nH]c(c1O)CC2O CCC12CC(NN)=CC1=NC(C)C2 NC12C=C3C(=C1)C1(CC3NC1=O)C2 C1NC2=NC1CC1CC(=NO1)ON2 N=C1CN2C(=N1)C(CO)=C1CCN12 Cc1[nH]nc(ONC=CC=N)c1Cl CC1CC2(CC3=C(C2)C2CC2O3)N1 C=C1C2=NC3C(CON2)CN2C1C32 O=C1C=C2C3C4C5C1OCC25CN34 CC12CC3C4OC4C14NC(=N2)NC34 CC12C=C3CCC4N=C(NC1C34)N2 CC1OC2C3CC4=NC1C2C3N4O C1=C2C3=C4CCOC2(O4)C2CC3C12 CC=C1OC23CN4CC(=NO2)C3C14 C1=C2CC3C4C5COC4C1C3(C2)O5 C=C(CO)C(NO)=C(C=O)C=NC CCC1=C(NNC=NN)CCC1=N O=c1cc(O)n2c(=S)[nH]cncc1-2 C=C1N=CN=C2C=CNC(O)=C2O1 Cc1ccnncn2nc1CN=C2 C1CC23CN4C5CC2ON=C5C3C14 CC1=C(CN)NNC(=O)COC1=N CN=C1C=NC(=CO)C(=NC)C=N1 C1=C2C=C3CCCC4OC(C3C2)C14 CC1C=CC2=C(O)N(C)N=NC2=N1 OCC12C=C3CC1C1C4C2C3CN14 C1=C2CC3=NOC4(C3)C3CC(C13)C24 O=C1C2=C3NC4C1NC(C2O)C4O3 CC12C3CC4C(C3)N3C(C5C1N45)C32 CC12C3=COC1C1C2C=C3N1C=N C=CC1=Cc2c(O)c(C)cc1c2Cl CC1C2C3C4C5N4C1C2N1C3C51C CC(NN)=c1cc2c([nH]1)=CNC2=O Cc1[nH]nc2c1N=NC=CC(=N)C2 OC1C2C3C4CN(C32)C12C=C4CC2 CC12C3C(=O)OC14CC(=NC4=N)N32 OC1C2C3CC45COC(=CC24)C5C13 CC=C1C2C3CC2C2=C3C3OC2C13 C=CC(O)CN=C1N=NC(=CO)O1 CC1=C2CC34CC(C#N)(CC13)C2N4 C1C2OC3CC24C2C3N1C2C1CN14 C#CCNNC1=C(CCC)N=NC1 C=c1ncc(=C(N)N)c2n[nH]cc12 CN1C23CC2(CS1(=O)=O)C1CC3C1 C1OC2=NNCC3CCC2C1=NN3 C=C(C=N)c1nc(N)oc1[N+](=O)[O-] Cc1c(N)c(C)n2c(=CO)nnc12 CC1CC2C(=CNN)N=NCC2N1 OC1C2Cc3c4c(nn3CC12)OC4 CC1=C(C=CC=O)C(=CO)C(=N)O1 Cc1s[nH]c2nc3snc(N)c3c1-2 O=S1(=O)C=NC2=C1NOC2=CNO C=CC(O)=C1C(=O)N(C)N(O)C1=O C1=C2CN3C4C5N=C2NC5C(O1)C43 CC12NC3C4=CC5=NOC3(O5)C1C42 OC12C3OC4C(OC41)C21CC3=NO1 CC1=C2NCC(CCON=C1)CN2 O=C1C(=CO)NC2=C1COC2=CO NN=c1oc(N=O)cc2c[nH]cc12 CC1OC2(C)CC3(O)CC1=C2C3C N=NC1=C(NN)C=C2NC3CC3C21 NC12CC3C1C(=NN3C=O)N(O)C2 CC12CNN=C3ONC(=CC=N1)C32 CC12CC=C3C4=C5CCC41CC5C32 O=C1C23C=C4C(=CO2)OCC14CC3 NC=C1Cc2ccsc2C(O)=C1O C=CC1=CC(=N)C(=CNO)C=C1O CC1C2=CC3CC4C=CC3(C2C)N41 CN1C2=NOCC(=O)CNN1C=C2 Cc1cnccc(CO)[nH]n1C=N C1C2=C3C4OC4C4C1C(O2)C1C3C41 CC1=C2NCC=NN=C2C(Cl)=CO1 C1#CC=C2CC3C(C2)N3C=NN=C1 CC=CC1=NC(=O)NC=C(N=O)O1 CCC1CN=C2C=C3CCN3N2N1 NN1CC23CC4N=C1C2NC1C4C13 CC1=CC2(C)OC3C=C(O1)C2=C3C C1=CC23C=C4OCC5(C2)C4OC3C15 CC1=NN2CC2CC(C=N)=CNN1 OC1C2C3C(O)C14C=C(CN23)OC4 OC1C2C3C4C5C4N2CC2C1N3C25 NN=C1C2=C3CC4C(CN(C2)C14)O3 OC12CC3C4CC1=C1CC2N3C14 C=C1CNc2c(O)c1oc(=O)c2Cl C=C1CCONC(C)=C(C)N=NC1 CC1N=C2N=CN(N2)OCC2CC21 C=C1OC2=C3OC4(CCNC13C4)C2 C=C1C23CC4C(O)C2C(=NN3)C14O C1=NC(=C2CNC(C3CN3)=N2)CN1 CC12CNC3CC4C1C1C=CC32C14 CC12CC13C1CC(CO1)C31CC1N2 CC12C3OC4(COCC5NC541)OC32 C=C(O)c1[nH]cc2c1NNC2C C1N=C2CC34CC1C(C3)NC4CN2 CC1=NC2=C(C)NOC=NC2=C1O CCc1nc2c(n1C)ON(C=O)N2 NC12CN3CC4(C1)C(N=CN4O)C32 OC12CC3C1CC1=C4CNC2(C4)C13 CCCC12CC1CN1N=NNC1=N2 CC1=CC2=NNC3=CC=NC1CC32 N=c1nc2c(c3c(n1)C(=O)O3)CO2 NC12C3C=CC14OC1=C3OC2C1O4 CCC(O)=C1NOC(=NC=O)C1=O Oc1c(Cl)cc2c(O)c1C1CC21O C=C1C2=C3CC(CON=CC1C3)C2 C=C1c2[nH]c(c(O)c(=O)c2O)C1C CC12CC3OCCOC1=CC=C2O3 C1NC2C3CC4C5OC(=C1C45)C32 C1C2CC3C1C1C4N1C1CNC34C21 NNC=C1C=NC(O)=C1C1CNC1 NC12C3=COC4(O3)C1C2NS4(=O)=O CC1(C2NN=C3C2=CN2CC32)CC1 C1=C2CC3CC45CCC13C(CN4)C25 CNN1C=C2N=CC(C)=CN=C2S1 N=C(CC1C2N1CC1CC12O)NN OCC1CNN2N=CC(Cl)=CC2=N1 C=C1CC2C3(ON=CC23N2CC2)O1 CC=NNc1ccc2c(Cl)c1CC2 COn1cc2c(N=N)ccc-2[nH]1 CCC1C23CC4N=C2NC(C3)C41O NC1C=CC23C4=NC=NC4=NN2C13 CC1C2N=C3C(=O)NN(O)N3C12C C1OC12CC1C3C4C(C2)C2C1C2C34 CC1N2CC3OC4=CC2CC31C=C4 c1ccc(NN=C2NOCO2)nc1 NN1C2=NC3C4C5C=C2C(O)(C54)C31 CC12OC3C4=C1C1C(C=CC32)C1O4 CC12C3C(=O)C4C(N=C3N)C1OC42 C=C1CC2=C(C=NC2=CO)C1CO OC12C3C4CC3N3C5CC5N4C1C32 CC1C2CC3N=C4C=CC(C2)(N4)C31 C1OC2=NC34CC5OC(C5C3N2)C14 CC12CC3(C4CO4)C=C1C(=CO2)O3 NC1=C(C=O)C(=CC=O)C(O)=CN1 C=CC1OC12C1OC3=CC2N2C3C12 NC12C3OC4=CC3C1C1CCC42N1 CC12C3N4CC5CC4C(CC31O)N52 CC12OC3C1C(=O)C1(N=CN)C3C21 c1ncn2c1C1C3C4OC1(C2)OC43 OC1=C2CC3=NNCC3=C2NC=C1 Clc1c2oc3c1CC1CCC3(C2)O1 C=C1NNC(C)=Cc2[nH]cc(Cl)c21 C1#CCN=c2ncc([nH]2)=CN=NC1 Cn1ncc(N=O)c2c(=O)[nH]cc1-2 CC(=O)C1=C(C)C=C(NO)CN=N1 CC1(C)CCC=CN2NN=NC2=N1 NC1C2C1C13OC=C4CC1CN2C43 CC1C2OC34CC5OC13CNC52C4 Oc1cc2c3c(c1O)NC1C(O2)C31 C=C1OCCC2=C3CNN=C3SN12 NCC12CC(=NO1)NC=CC=CO2 C1=NOCC2COC3C2=CNC3=N1 CC12CN3C4C1=C1OC4C3C1(C)O2 CN1CC2=C(C1)C(=CO)N=CC2=N O=CC1N=NC=CC=C2C=C1NO2 CC1OCC2C(=CNN)N=NCC12 C1Oc2nc3c(nc21)NC1CCC31 C=C1C2(N)CC3N(O)C4=NC13CC42 C1C2C3OC1C14OC5C(NC21)C5C34 C=C1CC=NN2C=CC(=NC1)N2O C1=CC23CC45NCC=C2C4CN3C15 CC1CC(NO)=C2C=CN=C2C1=O NC=CC1=CNOCOCCN=N1 C1NC23CC1C14CC2NC(=NC13)N4 NC1C2(O)CC3C2N2C4CC2C31C4 CC12C3=CCC1C1CNC(=N3)C12O CC1OC2(CN)CC3(O)CC1=C2C3 C1=CC23CC4C(N2)C2C=C1CC3N24 C#Cc1cc2c(Cl)c(c1O)C=C2 CC1=C2C3=C(C)C4(N)C(O3)C(O1)C24 CC1=CCN=C2C=NN(NC1)N2C C=CC1C2C3=CC4C1(CNC24C)C3 C1=NN2CC3=CC(CO3)ON=C1O2 OC1=C(c2cccc(O)c2)NNC1 O=C1C2=NC3(CN2)CC12COC3O2 C1=C2CCC34NC1C1OC3=NNC214 NC=C(C12CC1CCO2)S(=O)(=O)O CCCN1N=C2NC=C(O)N=C2S1 CCN1C(=O)C(N)=C(N)C1=CNO C=C1C=C2C3NC14C2C1CC4(C)C31 C=c1ncc2n1C(CCN)=NNC=2 OC12C3NC4CC3C1C4=CC21CC1 O=NC1=CC=CNC2=C1CC(=O)C2 C(=C1OC=C2OCC3NC123)C1CN1 CC=CCNN1N=C2CON=C2O1 CC1N=C2C3C(NC13CN)C1CN21 CCC1=C(C=N)S(=O)(=O)ONC=C1 CC1COn2c1c1sccn1c2=O CC(=O)CC1=C(NNC=O)CN=N1 C1C2C3N2CC12C1OC4C1NCC432 C1C2C3CC2C24OC(=NOC32)OC14 CC12CN1C1C3C1(N)C1COC32O1 CC1=C2CC3(N)C1C1OC2=C(C)C13 C=CCc1nsc(C(=C)O)c1NO C1C2OCC34C5OC5C5C(OC53)C124 NC12CC3NC4C5NC1(CC=C52)C34 C1=C2OC34OCC5=CC3(C1)C2CC54 CC(C)Oc1coc(C=N)c1NN COC12ONC3=C1C=NC1C3NC12 CC1OC2C3OC1=C1CC3C2(O)C1 N#CC1=C(Cl)C=CC2=NCC=CN21 NC12CN3C1CC1C=C4OCC12C43 CN=C1N=COC2=NOCC2=C1Cl C=CC1CON2C(=N1)NC(N)=C2O CC12CC(C1)NN=C1CC(=NN1)N2 N=C1NCC2=C1C1C(C3CO3)N1N2 CC1=NOC2OC3=CC2C2C(O1)C32 CC1C2=C3C=CC24C=CC2C1C3N24 NCC1C2C(=C3C=CC=N3)C=NN12 CC(=O)C1=CC(=CO)C=CC1=N CC1(C(N=CC=CNN)=NO)CC1 ClC1=C2CC3CC3CNN=C1ON2 C=C1C2COC1(C)C(=CNN)N=N2 C1=NC=NNc2c1sc1oncc21 OC12C=COC3=C1C(=NNC2)ON3 OCC12COC34C=CC1(C3)OC=C42 CC1C2C#CC3=NCC(=NCC12)N3 NC1(C2C#CC#CC#CC=C2)CC1 C1C2OC3C4OC2OC42COC13C2 CC1CC2=NNN=NC2=NC1(C)C O=c1cc2c(c(O)nn1)NS2(=O)=O CC1=NN=C2OC(=CS2)C2OC2C1 C=Cc1c(N)c2c(Cl)c(c1Cl)CO2 Clc1c2ncnc-2cn2occc12 C1=C2C3C4COC5(OC1CC25)C3O4 C1=C2C3OC1CC21CCC3=NO1 NC1CN2C3C4=NC1(C1CN41)C32 CC1OC=COC2=CCN(O1)C2=O Cc1cc([N+](=O)[O-])nn1OCC=N CC1=CC23CC2(CC(C2CC2)N3)O1 C=C1C2=CNNC1=NC=CCN=C2 CON1C2=NC3C4OC2=CNC4C31 CC1C23COC=C2CC2CCOC213 CC12C=C3C(=CC4C5NC(C34)C51)C2 O=C1CC2C3OC14OC1CC24OC13 NC1C2C3CC45NCC(=CC4C32)C15 CC1CC2=NN(O)N(C)C2=NC1C CC(NO)=C1C=NC(CCO)=C1O C=NN1N=CC2=NC3CC3C(C)N21 OC12CC3CCN=C1NN=C2CC3 CC1=NOC23CC4C5N4C2CNC153 C1CN=NC2=C3NOCC3ON2C1 C1=C2CC(C1)CCCc1noc2n1 C1CC2=C3C4NC4C4C3C(C2)N4C1 C1CC2=C3OC(O2)C2CCC3(C2)O1 CC1CC2=C(N)N3CCCN=C3N21 CC(=CNN=CNC=CC=O)N=O CC1=C(C=CO)C(=O)C(=CO)N1C CCN1OC2=NOC=NC2=C1O CC1=CC2=C(NN=CCN=N2)C1N C1=NCC23C4C5CC4C4C5C4C2N13 C=C1CC(O)=c2[nH]ncc2=CC1=O NC1=C2C3=NOC4C(O1)C(C2O)C34 CC1(C)CN2CC1=CCCCC=N2 C#CCONC1=C(C=O)C(=N)OC1 O=C1SC2=NCC3CNCC3N2S1 C1OCC2NN=C3CC4OC32OC14 O=C1CC23C4=NCC2CC1C3NN4 C1=C2C3CN4CC(C24)C12CN=C3N2 CC12C=C(OC1)C1NC1CC#CC2 NN1NC(O)=C2C1=NCC2CCO C1=CC2=C3CCC4(CC2(C1)CO4)O3 CC1ONc2c(C=N)[nH]c(C#N)c21 O=C1C2=CC3CC1C1CNC2=NC31 CC12C=CC3NC4(C=C31)CNN=C42 O=C1CCC2C34CCC12C(=NO3)C4 CC(=N)N1Oc2nc3n(c2O1)CC3 C=C1C2CC3=C4C2C=NOC14CC3 C=C1C2OC3OC4=NC2C(O)C13N4 C1#CCn2cnc3c2ccn3NC1 CC12OC1c1[nH]oc(=NN)c1C2=N CC=C1C(NN)=NC(C)=C1C=N C=CCC(O)=C1NC(O)=C(C)C1=O CC1NC2CC3CC24C(OCC14)O3 C1=C(CCN=c2nns[nH]2)COC1 C=C1CN2CC(O)C(=NC=CO1)N2 C1=NCC2C3CC4C(C(=CO3)N1)N24 NC1CN=C2SC=C3N=CC=C1N32 NC1=CNN2C3=CCNCC3N=C12 CNCC(NOC)=C1C=NC=C1O C1=CC23C=C4OCC(CO1)(O2)C4=C3 c1c2n[nH]c1CC1CC(=NN1)CN2 C1#CC2C=C3C=CC(CC3=C2)NC1 C=C1C2C3CC4OC5OCC4(C15)N32 CN1C2=NC3C4(C)CCC31C(C2)N4 CC1=CC2=C3C(O)(C=C2)CNC13C CNC1=CONc2cccc(C)c21 CC1=C2CC=CCN=C2N(N)N1N CC1=C(N=N)Oc2oc(C)nc2N1 C1=CC23N=CNC24C2CC(C3C2)C14 N#CC(C=N)=C(NO)C1=CNCC1 C1=CC2NNC3=NC4C=C3C2(C4)O1 OC1C2=C3CC4CC3C3C(C2)C1N43 Cc1[nH]c2c(c1NO)C(N)C=C2O NC12CC3=NN=CC34C3C(OC14)C32 OC=C1C2=CN=C1CCONC=N2 CCC(=Cc1coc(NO)n1)NN CN1N=C2N=C3CCN3N2C2CC21 NC1=NC2=CC(=O)C(=CO)N2C=N1 NN=C1C2CC=CC(N1N)C21CN1 CC12C3NCC14N=NC=C4NOC32 N#CC12C3NC4C(C5=NNC41C5)C32 CC1NC2=C(C3=NC=CC3=N2)C1O CC1CC2C3=CCN4C5C4C2N1C35 CC1CC2(C1)C1=NNSC1=NN2C N=C1NC2C3C=C4C5C=CC14C2N53 CC1C2C3=CC(CC#CCC=C3)N12 CN1C2C3C4=CC1(C=C4)C3C2(C)C CC12OCCC1C1=C(N=CC1=O)O2 NC1C2CC3=CC4N2C2CC2C14C3 C1=C2C3CC4CC5(CCC4(C1)C25)O3 C=CN1C=C(O)S(=O)(=O)C1=C(C)O C=C1OC2=COC13OC1C=C2C3=C1 C1=C2C3CC3C3=CCN=C(CC1)N23 NC12C=CC3=NC(=NCC1C2)ON3 CC12CNC3C4CCC31OC(=N4)N2 CNC1(C)C2C3=C4C5CC3N5C2C41 N=C1CC#CCC2C3CC(=NC23)N1 C=C1C2C3CC3C3CN=C(N1O)N32 NC12CC3=C4C5=NNC3(C5)C1OC42 O=CC(=Cc1cccs1)C(O)=CO CC1=CNn2cc(Cl)cc2C(O)=C1 c1sc2cc1N=C1NC(CO1)CO2 N=CCc1noc(C=O)c1[N+](=O)[O-] CC12NC1C13CC2C2(N)C(CN1)C32 C=NN1C(=C)C2CC3C(=N)N=C1N23 C1CC23CC1=C1CC4CC2C4OC13 CC1C2=C3C(O)C(O2)C2CC1(O)C32 NC12CC3CC14CC1=CC4(O)C3C12 CC1=CNOc2oc3nn[nH]c3c21 O=C1C2C3=C4CC5C(C3)C2C1N5C4 CNC1CC12CC1=NON(O)C1=N2 CC12NC3C4C1C1=COC2(C1O)C34 C1=C2C(=NNC3C4NCCC243)SN1 CN1NC(C#N)=CC1=C(O)C=O CC1=CNNCc2cc(N=O)[nH]c21 C=CNC(N=O)=C1C=CNC(=O)O1 O=C1OCC23CC=C4C5C2N5CC143 C1=CC23C4C=CC5C2N5C4C2C1C23 CC12C3=C4CC1C1CCC4(CC3)N12 CC1=CC2=CC3C4CN5CC4C2C135 CCC12C=C3CC14CC(C3O4)C2N CC1N2C3=C(C=CC3)C3=NN=CC312 O=NC1=C2C(=Nc3n[nH]cc32)CO1 CC1=C2CC3=CC4(C=C3)OC1OC24 C=C1C(=N)c2cn[nH]c2C=C1N CC(=C1C2C3CC1(N)CC32)C(C)N C=C(C)c1coc2oc1c(O)c2Cl CN1C=NCC23C(C4CC2(C)C4)N13 C=C1C(=N)NC=C1C1=NCCC1O C1=C(c2cc3ncsc3s2)CNN1 CC1C2CC3=CCC4C(=O)C2CC341 C=NN=C1SC2=NC3C(C)C3N2S1 C=C1OC2=C3C4CC5C4OC1(C2)C35 CC1C2C3OC4C(C#N)N=C(C43)N12 C1=CC23C4=CC5C(CC2C1CO4)C53 O=NC1=Cc2cc(c[nH]2)CC=CN1 N=C1CCC=CON2SC=CC2=N1 CC(=O)C1=C2OC=CC(O)=C2NC1 OCC12CC(N=C3SC=NN31)C2O CC12CC13NC1C(N)C1C31CC1N2 C1CC23OCC45CC(OC42)C3(C5)O1 NC1C2C3C2C24NN=CC2N3CC14 NC1C2=C3COC4(CO3)OC1C=C24 C1C2=C(OC34CC3NCC24)C2NC12 C=C1C2CC3C4C2C2OC4(C)CC132 C1=C2C=C3C4C5CNC3(CO1)C2C54 C=C(O)c1occc2nc(=N)[nH]c1-2 CC1C=C2C34CC=C(C3)C2(CN4)C1 C1C2=NOC3C4CC1C1C4CCC231 CC1OC23CC4N(C2)C2CCC14C23 C#Cc1c[nH]c(C=C(CN)N=O)c1 CC1=CC(=CO)C(CONC=O)=N1 CC1CC2=C(C=N1)C(CN)N(C)N2 CC12OC3=C4C=CC(O4)(C3O1)C2O OC12C=CC3OC4=NC31CCC2N4 CC12CC3=NN=NC3=C1NOC2=O CC(O)=C1C(=O)OC(N)=C1N(C)C C=CC1CC2=C(C=N1)C(C=O)NN2 Cc1nc2c[nH]oc-2c(NN)c1=O C1=C2CCC34C5CN(C2C3CO5)C14 C1C2CC34CC1C1C2C(=NO3)CC14 NN=C1C2OCC3=C2C2C(C3)CC12 NC1=CNCc2cc(N)cc(Cl)c21 C1=NNC23C4NC5C(OC52)C3C=C14 C=NOCC1=C(O)C(=CNN)C=N1 CN1C2Cc3ccc(Cl)c(c3O)C21 NC1C23CCN4C2C2CCC14C2O3 C1=C2CCOC3=NOC4CC1CC234 CN=C(c1cc(N=N)c[nH]1)N(C)C O=C1CC2C3C4=CCN5CC45C2C13 C1#CCNC2CC3(C#C1)C=CC2O3 C=C1CC2(O)CC3CC(=C2O3)C1=C CC12C=C3c4[nH]cc(Cl)c4C1C3N2 O=C1C2=C3C(=NO)C1C1CN(C2)C31 NNC1=CNOCCc2ccc1s2 NC1C2CN3C4CC5=C(C1C2O5)C43 C1NN=C2CC(CN2)C2=NNC1C2 OC1=CC=C2C(=NCC3CN23)N=N1 C=CC1=CNNC(=O)C#CCN=N1 C1=C2C3NC4CC2C2(CON=C12)C43 C1=C2C3CCC4(C3)OC3CC14CC23 CC12CC3=C(CN4C3C(C)(N)C41)O2 CNNC(C)=CC=Cc1ccn[nH]1 CN1CC2OC3C4N=C(N1)OC2C43 CC=C(O)c1cc2c([nH]1)CN(C)N2 C1=CNc2c([nH]c3[nH]cnc23)N=C1 CONC(C)=C1C=C(N)C(=O)C=N1 CC1C23CC4C(C2=CCC3N)C41C C=C1C2COC1CNNC=CC=N2 NC12C3=CCC14C1CC(C2O1)C4O3 CC1=C2CC3NC4C(=COC24)CC13 CC1=C2C(=C3OC=CC34OC24)OC1 C1=CC23NCC45CCC(=C1C2N4)C53 N=C1CC2C(=C3CCN4CC2C34)N1 C1=NN=C2C3=C(OCCN13)C1CN21 C=C1C=CC2N3N=C4N=CN=C4C123 C=CC12OC1C1=NCC3C(N)C2N13 C1=NNc2c(cn3cccnc23)N1 CC12C(O)C1C13CC4C(CO1)C3N42 C1C2C3=NOC4OC(C12)C1C3C41 COn1c(=S)n2cc(C)cc2n1N CC1(C)C2C3C4=CC5C=CC41N5C32 C1=NCCOC2=C3CNN=C3SN12 C1=CC23CCC45CC2C1=C(CN4)C53 C#CC1=C(NN)C2N=CN=C2C=C1 CC(C)n1oc2coc(=O)n2c1=S C=CCC1=CC(=CO)C(OCC)=N1 OC12C3C=CC4C5C(=CC1C53)OC42 C=C1CC(NN)=C2C(=O)C=NC=C12 CNC1=CCCn2ccc(Cl)c21 CC12OC3=C4C5OCC3(O5)C1CC42 CC1C=CON2C=CN=NC2=NO1 C=CC12CNCc3oc(c(O)c31)O2 CC1C=NN=C2C(Cl)=CNC(O)=C21 CC1C2NN=C3C4C(COC312)N4C C1CC2OC3OCC24CC(=NC34)N1 C=C1CC(O)C(NO)=CC(=NC)O1 C1=CN2C=NNC3=C2C(=NC1)OC3 C=C1OCC2=CC3=C(C(=O)C=N3)C12 C1=C2CC3C1C1N3C3CC21C1OC31 CNCC(NO)=C(OC)C(=N)CO CC1C2CC3=C4CC5C(C4)C1N2C35 OC12CNC3=NC14CN(CC4N3)C2 C1C2CC34CC1C1C2C(=NC13)NO4 NC(C=CO)=Cc1ccc(=O)oc1 NC1C2CC3=C4OC(CC3)C1C42 CC1C=C2C3C=C4CCC(C1)(N3)C42 C1=C2C3NC4COC5(CC1CC25)C43 NC12C=CC(N3CC(O)C=N3)C1C2 C1=C2CN3C1CC14OCC(NC21)C34 CN1C2=NOCCCCN1C(=O)S2 Cn1c2c(O)c(Cl)c1C(NO)=NC2 CONC(=CC=N)C(=N)NCC#N Cc1[nH]nc2c1C(=N)C1(CO2)CO1 C=CC12C3NCC45NC(CC34)C1C52 NCC12NN=C3NC(C4C3C41)C2N C1CN=C(N=C2NCCO2)C1 CC1=C(O)ON2C(C=O)=CCN=C12 Nc1nc2c(O)c(c1O)NS2(=O)=O C1N=C2NNC34C1CN1C(CC23)C14 CC(=CN=O)C=C1N=CNS1(=O)=O N=NC1=C(C2COS2(=O)=O)NOC1 CC12C3=CC4C5OC3C3C5C4C1C32 O=CC1=CC(=CC2=NC=NC2)NN1 CC1=C(N)C2CC3NN=C1C1C3C21 NC12CC3=CC1C2ON=COCO3 CC1=C2OC=CC3=CNC(=NC1)N32 C#CCC1=NOC(N=N)=CNC1=O CC1C2=CC3N4CC(N)C3(CC14)O2 CC12CC1c1cc3c(n1O2)OCO3 C1CNc2oc(c3c2CC3)CCN1 C=C1C2CC3(OC(=N2)NC3=O)C1C CC1C(c2[nH]ncc2C=N)C1(C)N CC1CC(O)C#CC(NO)=CC=N1 CC1CC2=C3C4CC2CC3(CO4)C1 Nc1cc2c3c(n1)C=NC3=NCC2 N#CCON1NN=C2CCCN=C21 CC12CCC3C(=C4CCC1N3C4)O2 CC1(C)NN=C2ON=C(N)C(Cl)=C21 N#CC12C=C3C(=C4CC3(CO4)O1)C2 CC1=C(N=O)Nn2c(O)ccc2N1 CONC1=C(N=O)CNC12CCC2 ON1OC=C2CN(CC3CN3)N=C21 CC12C3C(=O)C45C=CC3C4N1CC52 C1=C2CC3CCC4=CC(C1)N(C2)C43 OC1C=C2C=CNC3=NCC(=C1)N23 CC(C)C12C3OC1C1CC2(C)C=C13 CC1=C(NNc2ccsn2)CN=C1 C=C1C2=C3CC1N1CC(C21)N3C=O C1OC2=C(O1)C1CC3(CC3)N=C1N2 NC12C3NC4C(C5CC41N=CN5)C32 NC1=CN2C(=NCC3=C2COC3)O1 O=CC12C3=CC4CCC(C1C=C3)N42 ON=C1CCOCC(NO)=CC=N1 CC12OC3=C4C(=O)N(O)C(C1N3)C42 C1C2C3OC2C24CN=C(NO2)C3C14 C1=CC(n2cc3c(n2)NNC3)=CC1 CC1=C2C3CC45CN3C(CN4)(C1)C25 NCC12C#CC3CC(C#CC1C2)O3 CNNC=C1NNC=C1C(=O)C=O CC12C=C3C4=COC(C41)C2C3CN O=CC12CC1C1=C(O)NOC1=NO2 CC(=O)C(O)=C1C=CC(=O)C(N)=C1 CC12C3CC4(NC31)C(N)CC1CC142 OC12CC1C1CC3C4=NCC2(N4)C31 C1=C2COC34C(CN5C(CC53)C24)O1 N#CCC1=C(O)N=C2CNNC=C21 N=C1CON2C=CC(Cl)=C(Cl)C2=N1 CC1=C2C3OCC4(O3)C(COC24)O1 N=C1C=C(O)C(=O)C2=C(O)CCN12 CC1=C(N)C=C2CCN=C2C=C1O OC1=C2NC3CCC3N=C2OC=C1 C#CC1CC2C3CN4CC(=C13)CC24 O=NC(=O)C1=CNNC=C1 COC1=C2NNC=C2NC(C=O)=C1 N#CC1=C2C=CC3C(CN4C2C34)O1 C1#CC2=CC3C(C=NOC1)N3N=C2 OC1C2C=C3C4=CC5C(O4)C2N5C31 CN1C(O)=C(O)C2=NC3(C)CC3N21 NC1=C(CO)OC2=NNCC2=C1Cl N=c1c(=O)c(N)n[nH]c2ccoc12 CN1C=NN2C=C(CC2=N)OCO1 NN1C=C2CC3OC=NN=C1C2O3 C1=NC2=NCCc3cnn(c3)C1=C2 COC1ON2C=C(N)C(=O)C2=C1O CC1=CNC(=O)OC1=C(CO)N=N C1=NOC2C3CC4C(=N3)NOC42C1 CC1C23C=C4COC1(C4)C(=C2)OC3 C1=NN2CC1=CCC1CC(=NO1)C2 CC1NCC2=C1N(N)N1CCN=C21 C=CC1CNNC1=C(C#N)C=NC C=C1CC2(C(NO)=N1)C(C)N2C=N ON1SC2=NNCC=CCNC1=C2 NC1C2=CC3C4C1CC3(C2)C1OC41 CN1C2C(=O)C3=C4OC(C)(C3)C1C42 NC12C3=NOC1OC1=NC2C(C3)N1 CNNC1=C(OC(C)C)C=NC1C CC1=CNC(=O)C1=CC=NC=NN N=NC1=CC=C2NS(=O)(=O)NC=C12 C=NNC=C1C=CC(N=NC)=C1 OC1C2C=C3C4C5NC3C1(NC2)C54 CC1C2CC3=CC4C=C3C2N41 CC12C=CC34OCC(C=C13)(CO2)O4 C=c1oc(=N)c(C=O)c2c1=CNO2 CC1C2CC3(ON=C(N2)O3)C1C Cc1oc2c(Cl)c1C(O)=CNNC2 NC12C3COC45CC(OC34)C1C52N C#CCC12CC3(C)C=C1C(=NN2)C3 O=C1NNC=C2C1=CC1=CN=NC12 N=c1scc2n1C1=C2C=NC1=CO CN1C=CN=CC2=CNN(C2)C1=N C1=CC2CC3ON=C4NOC2(O1)C43 O=C1CC23C4CNC2(CO4)CON13 OC1=CNN=C2CC=CN=CN=C12 CC1OC23CC4(CO2)OC=C3C14N NC1CC2C(=O)ONC=C(N=O)C12 O=c1c(Cl)c2c(Cl)c(n1O)CNC2 O=S1(=O)C2CC34NCC5C(C31)N2C54 C1=C2C3NC4C3OC13C1OC1C2C43 C1=NNCC2C3CC4=C(O3)C12NC4 N=C1CCC2=C(O)C=CC=NC2=N1 CC1ON2C=NN=C3C=CNC1=C32 CC1CC23C=CC45CC(C2O4)N1C53 OC12CC3C=C1CCC2=NN=CC3 CN(C)C1=C(N)C(=CC=N)NC1=N CC1C2C3OC14ON=C3C4C2CN COn1c2c([nH]c1=N)C1(CC1)N=C2 OC1C2OC34CCC5C=C3C2NC514 C1CNC2=NC3=C(CCO3)C2OC1 C=C1Cc2nc3c[nH][nH]c-3c2C1O CC12OC3OCC1(N)C31ON=C2O1 CN1CC(=N)C(CC=CC=O)=CN1 C1ON=C2C3=C1CON=C3C1OC21 CC1CN1C1=C(NN(C)C)CN=N1 O=[N+]([O-])C1=CN2N=CC=CN=C2O1 CN1CC2C3CC4(OC3=CC4O)C21 C1=C2C3CC(CC=C3C3NC23)CC1 O=S1(=O)N=C2C=NC=C(O)OC2=N1 C=CC1=CC2C3C4C5=CC1(C2O5)C43 C1OC23CC1=C1CCC4C(OC42)C13 O=c1cc2occc3[nH]ncn1c32 OC1C2OC3=C(O2)C12C=CC(=C3)C2 NNc1c(N=O)oc2c1CCC=C2 O=CC1C2CC(=CN=O)NOC12 C=C(C#N)C1=C2ON=CN=C2SN1 CC12C=CC34C=C5C(O)C3C1C5N24 C=C1C2C3C4C5=CC(C(C)O5)(C14)N23 CN=c1s[nH]c(CC=N)c1[N+](=O)[O-] O=CC12CC(=CO1)C=NOC=NO2 C#CC1NNC(CC=O)=C(C)C1=N C1=C2CC(C1)C1=CCC(C1)OCO2 CC1=CC=C(O)C2=NC3CC3(C)N12 CC1=C(O)ON2OCCC(=O)N=C12 C=C1C2CN3C(C13C#CC)S2(=O)=O N=C1C=CNC(=O)C(=O)C1=CNN C1=CC2(C3CO3)OC3CC(=C2C3)O1 CNC1=NC=C(O)C=C2CON=C21 OC12C=C3C4C=CC5(C4)C3C1CC25 Nc1noc2c1CC(C=CO)=C2O OC12C3CCC14NC1CC4(O3)OC12 CC1=C2CC34OC(C(C)C13)C2C4N C1#CC23C=CC(NCC1)C(C=C2)N3 N=C(CC1(O)C2OC3C(O2)C31)NO CN1CC23CC4CN=C1C2OC4O3 O=C1ONC=C(O)C1=C1C=NNC1 C1=C2NOC(C3CC3)CCC2N=N1 CN=C1C(C)N=C2SC(C)=C(O)N21 C1OC2C3CC14NC1CC4(CC12)N3 C=CC(NC(N)=NNC=N)C1CC1 CN1NC=CC1=C(O)S(=O)(=O)CO C1CC2=C(CCN3CC3)NOC2=N1 C1=NNC2CCC3(C2)OC=C(N1)O3 O=CCC1C2C3C=C4OC2CC41O3 NCC12CC3C4=C1C1C(O4)C1N32 NC12CC3C4=NC(C5C3C51)C2CN4 CCC12C(=O)C=C3C4=NC1C(N4)C32 OC1C2=C3CC(CNN=CC1O3)C2 CCNC(N=N)=C1NC(=N)C=C1C NC12C3=C4CC1CC2CC1C4CC31 NC1C2C3=CC14OCC21CNC3C14 CC12OCC1C1C(=O)C3CN=C2N31 NNc1[nH]cc(O)c2nc(O)cc1-2 CN=C1C2=NCC(C#N)N2ON1C C=C1C2C3=C4C(O)C5C(O3)C2N5C14 CC1C2C3N=C4NC3C13CCN2C43 C1=C2C(N=C3OC4CC4N23)C2CC12 NC1=C(O)CCCNc2nocc21 O=[N+]([O-])C1=CON2CCN=CN=C12 NC12CC3=CC14CC31CC=C2C1N4 C1=CC2=C3C(=NCC2)CCC3=NN1 C1=NCC2ON=C(O2)C2=CNN1C2 CC12CNC3CC4(C1)NN=C3C4O2 C=C1OCc2oc1c(C=CO)c2O CC12C3C4C5C=CC1(CCN32)N54 OC12C3C4CC15OC1C2C1C5(O)C43 C#CC1=C2C(N)=CN(C)N=C2SN1 C1N=C2NC34CCN(CC3O2)C14 C=C(CC=O)CCONC=CC=N CC12C=C3C4C5OC3(C(=O)O1)C2C54 N=C1CC2OC3=CN=C(NN1)C3O2 Cn1cc(Cl)c(O)c1C(=CO)NO CN(C)C1C=CC2=C1NN=CN=N2 ON1C2=NCC3(N2)C2CC4C(C21)C43 CC1=COC2=C(C)C(=N)C(=CO)N12 NC1=NC2=C(C(=O)CCN2)C1=CO C1=C2C3CC4C(=NOC24COC1)N3 N=C1CCCOC2=CC(=N1)N=NO2 CN1CCC(C(=N)C(=O)CO)=CN1 C1C2=C3OC4CC1C4OC1C(O2)C31 CC1C2CN3C4C5(C)CC(O5)C43C12 C=C1C2=C3C(N)C(O2)C2(C)NC1C32 O=C1C2OC3CC45CCC(C24)C13N5 C1=C2CNC3C4OCOC1C4C3O2 NC1C2C1C13C=CCC14C(CN3)C24 C#CC1=CCN=C2N=NNC(O)=C12 CCC1CC2=C3CC(O2)C(O)C31N C=C1C23CCC4C(=COC14OC2)O3 CC12C=NOC3=NNC=C(C=N1)C32 C=C1CC=NN=C2N=NOC(O)=C12 C=C(OC)C(=CC=NC=NO)NO CC(N)=CC1=C2N=NCC2(C)NN1 OC1CC23COC14CN=C(NO2)C34 C1=CN=C2C=C(CNN=C1)OC=N2 CC1(CN)C2C3=C4C5CC3C5N2C41 C=C1OC2C(N=O)=CNOC2C1=O CC12CN3C4CC3C3C4=CC1CN32 CC1CC23CC=C4C2C(=O)OC41C3 COC1=Cc2cc(O)c(O)c1c2Cl CC1(C)CN2C(N)=NC=C(N)C2=N1 CC12CC3C4OC3C3C(N=C4N1)C32 NC12C=NN(C3C4C=NNC43)C1C2 C1C2NCC34CC2NC(=NO3)NC14 NC1C2=CC3C(=NO)C24CC1C3O4 CC1OC2=NC3CC4(CO4)C1(C3)N2 C1=CC23CNC14CC1=CC2OC1C43 C1=C2CCC34CCCC1(C=C2C3)N4 C1CC2C3CC2C24CN=C(N2)C1C34 C=CC(=CNO)C1=NC(C)(C)CC1 CN1C2=COC(=NCC3CC1C3)N2 N#CCC#CCOC(N)=NNC=N C#CC1=NC2=CN(N)SC2=NC=C1 C1=NN2CC23C2C4NC13C1OC1C42 CC12CN3CCC(=NN=CC1O2)N3 CC1CN=C2C1=C1CC=NN1N2N CC1(N)C2=C3CN4C5C3N(C2)C1C54 O=C1C23C=C(CN2)C12COCC2=C3 CC1C(CC23CC(N)(CO2)C3)N1C CCN1CC2=NN=CC=C(Cl)C2=N1 OC1C2CC3OCC34N3CC(C3)C124 CC(=CO)C(=CNO)c1ccsc1 OC1COC2C34C=C(OC3)C12NC4 CC1C=CC23N=NC(=CNN)C2C13 O=CC1=CNC2=C(NCC2=NO)O1 CN=C1OC2=CCCNNC=C1C2 C=NN1C2=NCCC2=C(O)N1C CC1=NC23C=C(C(C2)C2NC23)N1O CC1=C(O)C=C2OC=NN=C2N=N1 CC1CC=CC2=C(C=N1)C(C)NN2 Cc1nc2c([nH]1)C=C(N=N)CC2O C1=C2OC34ON=C5NC3(C1)C2NC54 NCC12C=C3CC1C1C(=C2)OCC31 N=C1CCCCN2OC(=O)SC2=N1 C=CC1=C(Cl)C2=NC(=O)CNN2N1 CC12C3C=C4C5CC(C(C5N)C31)C42 O=C1C2CC3C4=NC5CC5N4C2C13 CC12C3C4=COC15COC(C5)(O4)C32 C#Cc1coc2c1=C(C=O)NNC=2 CC1=COCC2=CCC3C2N3N=C1 CCN1CC2CCCN=NC2=CN1 C1=C2OC3C4CCC2(C43)C2(C1)CN2 O=c1[nH][nH]cc1C1=C2COC(C2)O1 CC1=C(O)OC2=NCC=NN21 NCc1[nH]nc2c1C(N)=C(O)C2 C#CC12CC3=C(C(=O)C=N3)C(C1)C2 C#CC1ONC(=CN=O)C(=O)C1=C CS(=O)(=O)OC1=C(NN)COC1=N N#CC1NC2C3C4C3C13CCN4C23 CC1OC2C34C=C(CO3)C(O4)C12C CC1=C2CNN=C2C(Cl)=C(CN)N1 CC1(C23CC2n2ncnc2O3)CC1 C=C(C=CC)CNC(=N)N=C(N)N C#CC1=C2C3=CC1C1CC(C=C3)C21 C1=C2CNC1C1=NN=C(C1)OCO2 NC(C=CC1(C=O)CC1C=O)=NO NC1C2C3=NOC45CC(OC34)C2C15 CC1(N)CC(N=O)=C2C(=O)NC=C21 NC1C2OC3=CC4NC3(C3OC43)C12 C1#CC2C=C3OC4C(NC1)C4C3O2 N#CC(=O)N1NC=C2NN=CC=C21 NCC12CN=C(C1)NC=CN=CN2 O=C1N=C2C3=CC4C(C3)C(C14)N2O OC1=CNN=C2C3=CC=CC3N=C12 CC=CON1C=C(C)C(=CO)C1=O C=C1OC2C3CC1=C1CC2N(C1)C3 O=C1Cn2cc(-n3ccnn3)cc21 CC12NC1C13CC2C=C(O1)C1CC13 C=NNC=C1CC(C(=C)CC)N=N1 CC1NN=C2SC=C(COC1=O)S2 C1=C2C3=C4CNC2(C4)CC2CC3C12 CC1CC2ON=CC3C2=C1C1CC31 C1=COC2C=CC3N4CCC(=C1)C234 NC1=CNNc2ccn(C=O)c21 O=C1C2=C(N=NC2=CO)C(O)C1O C1=NN2CC1=NN=C1COC(C1)C2 C#CC(CC1=NOC=NC=C1)OC CC1=Cc2c(Cl)cc3n2C(CN3)C1 O=C1C=CC2=C3C=CNNC3CN12 CCCCC(=Cc1c[nH]cn1)N=N C1=C2OC3CC4CC5NC1C5C24O3 N=Cc1occ2c1NN1CC21C=O O=C1NC2=C3CC4C5C(O2)C1C3N45 NCC12OCC3=C(O1)C1C2CN1C3 CCN=C1N=C2ON(C)C=C2ON1 C=C1C=C2C3=NC4C(N3)C1C24N CC12C(=O)C3C=C1C(O3)OC2CO C#CC1=NC=C(N=O)OS(=O)(=O)N1 O=C1C2C(O)CC3=C4CN(C3)C1C42 CC1=C(N)C(=O)NC1=CC=CNN O=S1(=O)N=C2ON(N3CC3)C=C2O1 C1CC23C4=NOC2C2C4N2CC3N1 CC1C2NC34CC5NC5C3(C12)C4O C=NN=C1CC(NO)=CC(=NC)C1 C=C1CN=C2Sc3cc(C)nn3N12 CCC1=C(Cl)C=NC=C2CNN=C21 C=C1CCCN=C2NC(=NN2O)O1 NC12C3OC=C4C5=CC3C(C5)C1C42 Cc1cc(Cl)c(C(O)=C(O)CO)[nH]1 C=C1OC23CC4C(O2)C2=CCC14C23 CC1=C(O)C(=C(C=O)CO)C=NN1 CC12CC(C1)c1csc(c1)NC=N2 CN1CCC(C=O)=CC(=N)C=CN1 C=C1CC23CC4=CC2C2(C)C1C3C42 C=C(C#N)C(=CNOC)N=NCC C1=CC23OC4C(=CC1)C(O2)C1C4C13 C=NNC(C)=CN=NC(C)C#N C=C1C2(CO)C=C3C(CNC13C)O2 C1=CCC2=CCc3c2n[nH]c3OC1 S=C1NCC=C2N3C=COC3=NN12 CC12N=C3C(=NSN3N)C1C2CO C=NOC=c1[nH]c2c[nH]nc2c1=C CC1=C(C=N)C(=O)CC2=C1CNN2 N=C1C2=CCC3C4NC4C(C23)N1N C=C1C2=C3OC4CC5C3C1C(O2)C45 CCC1=NC(O)=CC1=C(CN)NO CC1=CC=CC(Cl)=C2C1=NOC2C CC1=C2C=CSN2C2=NC(=O)CN21 NC12CNC3C4C5CC31C(OC2)C54 CC1=CC23CC(C)=C4C2CCC14O3 CC12COC3=C4CN(C1C(=N)N4)C32 C=C1C2=C3C(=O)C1C1CC(C=C2)C31 CN1C=C2N=CC(NN)=C2S1(=O)=O NCC1N2C=NC34CC5C(C3)C5C124 C=C1C2CC3C14CC(=CO4)C23OC OC12C3OCC14NC3=NC1C4CC12 C1CC2C3C1N2C12CC1OC1CC132 C#CC1C=Cn2n(N)c(=O)c(=O)n21 C=CC(C)=C1Cc2sc1c(Cl)c2Cl N#CC12C3OCC14C=C3C1C2N1C4 CC1Cc2ccc(-c3ncc[nH]3)n21 C#CC12OCC(C)=C3CC(C=C31)O2 CC12C=C3OC4C(C#N)N1C4C3=C2 C=C1C23COC14COC2=C4C(C)O3 CC1OC23COC4(C2)OCC1=C4C3 CC1OC2C3=CNOCC3=NCC12 CC1C(O)C2=NC(=O)C(=CNO)N21 CC12C3CC1(C)C1(N)C3=CC3C1N32 CN1CC2=C3OC4C(C3=O)C(N2)C41 C1CC23CC4=C(CO2)COC4(C3)O1 CC1(C2N=Nc3cc[nH]c32)CC1 COc1cc(N=N)c2c[nH][nH]c1-2 CC1=CC(=CO)C(CNC(N)=O)=N1 NC12CC=C3C4=NOC1C(C32)N4O C#CC1=NOC=C2NCCON=C21 C1C2C1C1C3Oc4onnc4C1C23 C#CC1=C(C(N)=O)NN=COC1=N CC1C2CN=C3NC(=NO3)NC1C2 OC1C2CC3NN=C4CN(C2)C31C4 C1=CC23CC4(C=C(CO2)C(=C4)O3)O1 CC1=NOCCCN2C=C1NC=N2 CC1=C(N=NC=O)NNC(C=O)=C1 NC12CC3C1N1C4C2C3C2(CC2)C41 NN=C1C2=C3CCN4C3C3C1C3C24 C=CCn1n(N)c(=O)c(=O)n1CC NC12CC3NC1C1C4=NCC31C2N4 CC=C1C(NO)=C(C=N)CNC1C C1C2C3NC2C2C4C1C4CC1C3C12 C1C2=NNCC23C2OC(C12)C31CN1 C1=C2CC34CCC=C3C3C2N3C4C1 OC1CC23OC4C5OCC1(C4O2)C53 CC12C3CN=C(CN)N1C(=S)NC32 CC1=CC23CNC4C2C(NC3)C14N C1=NNC2CC2C2=CC=NC(=C1)N2 COc1cnc(NO)c(C=N)c1 CC12C3C4(N)CC(O)(C5C4N51)C32O C=C1CCC23CCC4(C2)OCC3=C14 N#CC1=C(C=N)C2C(CC=O)N2N1 C1=CC23CC4NN=C(N1)C(N2)C4C3 C1=CC2=NC(=NN=CCCC2)N=N1 C1OC2=NC3=NC4CC4OC3=C2O1 NC1=CC(N2NC=NC3CC32)=NC1 OC1C2CC3=CC4(O2)C(CCC14)O3 C1C2=NNC34CN1C(C1OC13)C24 NC12CCC34C(=CC5C(CN53)C14)C2 C1=C2CCC34NC15CCC3C5OC24 CS(=O)(=O)C1=C(O)C(=N)NC1=CO C1C2OC3C1C3NC13CC1ON=C23 C=C1OC2=CCCN3CCC4C1C243 CC(O)=C1CN=C2C1=C(C)ON2C N=C1CN2C(=N1)OC(C1CN1)=C2O C=COC1=NC(=CO)C=CC1=N C1CN2C3C1C2C12CC1CC1CC132 C=CN1C2C3CC(OS1(=O)=O)C2N3 OC=C1N=NN=C1C1CC(CO)C1 C1#CCN2NC(=NC3CC32)C=CC1 N=CNC1C(O)=C(O)c2cnsc21 CC1(C)C2OC3=C4C(O)C(C3)N1C42 CC12NC3C4=C5CCC3(O5)C1OC42 CC12CC3(N)C(=O)OC4=C3C1OC42 OC=CC1=C(NO)Cc2c[nH]cc21 CC=CN1CCONC=C1N=NC OC1CC2CONC2=C2N=NCC21 OC=C1N=NC(OCCC2CN2)=N1 C=CC1=C2C(=N)NC=C2C(=N)CC1 N=C1C=CCC2=C1C1C(=O)CN1N2 C1C2OC3C4OC3C23CC2C(C43)N12 C=NNC=C(C=C(C)C(N)=O)N=O N=C1N=C2OCCC3=C2C1=CNC3 O=COC1CNC2=C1C(=CO)N=C2 O=C1C2NC3CC45CCN(C24)C13C5 OC12C3OC45CNC(C=C(C4)C31)C52 C1=C2CC34CC5CC3C2C(C5)(O1)O4 C#CC(NN(C)C=N)=C(C)C=N C1=C2CNC3C4C1C1CC23CCN14 CC1OC2=C(O1)C(=CO)C(C#N)=N2 O=CCCC12C3CC4N=C(N3)C1C42 CC1=C2NNC3C(N)C23CN=C1 CC1=CON2C1=CN=C1CNN=C12 CC12CC(O)=Cc3cnoc3C1C2 Cc1ccc2c(c1)S(=O)(=O)NN2O CON(C)c1n[nH]c(C)c1C=CN CC12C3=NNC1CC2(O)C(N)=C3 C1C2C3NC14C1NC1C3C1OC2C14 C=CC1=C2N=C3NCC4C(C1)C2C34 NC1CC2NC23C2(N)C=CC13C=C2 CC1C2=C3C4CC1C4CC3(O)C=C2 O=Nc1ccccc[nH]n1C1CC1 CN1C2C3=NOC4C(N)C(C21)C34C N=C1NC2C3C1=C1OC3C2N2CC12 C1CC2N=C1NNC1C3CC2OC31 CC12C3=CC4CN(CC1(O)C=C3)C42 S=C1Nn2cc3c(c2C2CN12)NC3 O=C1NC=C2NCC=C3CN=C1N32 OC1C2(CCCC2)C12CNNC=N2 C=C1C2=COC3(C)C2=CC1C31CO1 CC1=C(CO)C(=CN=N)NC(=O)O1 CC1=C(C=N)C(=O)N(N)C1=CNO CC(=Cc1csc2onnc12)NN CC12OC34CNC5C(=CC1C2C53)O4 C1OC23CN=C(C2)NC2C1C2NC3 CC#CCN1CC2=CN(C)OC2=N1 C1CC2CN=C3CCNC(=N1)N32 C1NN=C2ON=C3C2C1CC1CN31 ON=C1C2=C3NCC4C1C(O)(C2)C34 OC12CCC3(C1)C1C=C2C3OCO1 N#CC1OCC(=CC(=N)C=O)NO1 NN1C=CN=C2C=CC(CN=C1)N2 C=NN1NC=C2CC=CC=NN=C21 C#CCC1CONC(C=O)=CC1=N CN=c1c(=O)n2cccc2on1O CC1C2=C3OC1C1=NN=CC13CO2 NC1(C2N3C4CC2(O)CC43)COC1 C=NN1CC12C1C3OC2(CN)OC31 CNC12CC3C4C=C1C1=CC2C3C14 NC=C1CN=NC=Cc2c[nH]nc21 OC1CC12C1C3C4OC=CC42CN31 OC12C3CCC4C1C1OC2C4(C3)O1 CCOC(=O)C1=C(O)N=NC1=CO CC12C(O)C13OCCC(O3)C1CN12 CC(=CNOCCN)C(=N)C(N)=O CC12C#CCNNC=CC(=NC1)C2 CC1=C2NN=C(NN3CC3)C2N=C1 C1=NCC2=C3C(=CC=NN13)C1CC21 CN1C2=NC3COC4(O2)C3NCC14 CC12C3CC4C5C6CC5N1C2C6N43 C1=CC2C3OC4=C1C1OCC4C3C12 NC1C23NCCC2CC2C=NOC213 O=C1C=NNC=CN=NCC#CC1 COC1=CNN=CNC(C)CC1=N CC1=CCN2CC(=CC3OC13)C=N2 C1=C2CC3(C1)C1C2=C2CC1C1C2C13 C#CCC1=C(O)N=NC(=CO)C1=O C#Cc1[nH]cc2c1SC1=NCCN12 C1=C2COC(CCc3cnn1n3)O2 NC12C3CC4C5NC(C1C=C53)C42 C1=NOC23CCC(O2)C2OC1=C3O2 C=C(C)C1C2=C3OCC4C3C(C2)C14 C1=C2COCC3OCC(=C(C1)C2)O3 CC12C=CC34COC5=CC(C1C53)N24 CC12C=CC3OCC4C1=NOC34C2 C#CC(=CN=N)c1cncnc1N CNC1=C(NO)Cc2snc(N)c21 CN1C2=NC3C(COCOC=C2)C31 c1sc2nc1-c1nc(no1)NCC2 CCC(C(C=O)=NC)=C1CCON1 NC1(CC23CC(O2)C2(CO2)C3)CC1 OC12C3N=CNNC14CCC4NC32 C1=C2CCC=C3OCC(=NCC1)N23 C=c1nc2[nH]c1=NOC(=O)COC2 CC1=CCC2=NC(=CC2=O)C#CC1 C1C2=C3OC4(COC2C4)C2OC1C32 CC1C2C3=C4CONC4=NC3=NN12 CC12C3=C4CCN1CC2C(O4)O3 CC1C2CC3N1C1C4=CC3(NC4)C21 C=C1N=C2CC1=CCOC1CC1N2 C1=CC23CC45CC2=NNC4C1N3C5 CCC1=C2C=C(N=N)N=C2C(=O)N1 S=C1N2CC2C23C=CC4C(ON12)C43 CN1SC2=C(N)C1=NCC=CCC2 CN1CC2=NC(=CCC3CC31)CN2 CN1C2C3=NNC4C1C(C2O)C34C CC1CC2C3NCC4=C3C(CO4)N12 CCC(C)=C(O)c1[nH]ccc1NO OCC1OC23OC4=CC2C1C1C4C13 CC12CC3C=C4CN(C1)C3(C4)C2=O O=C1NC2C3CC4=CC(N3)C2C=C14 NC12CC3=NC4CCC(C1)C4C2N3 CC(O)=C1C(=O)C(N)=CN1C=N CN(C)C1=CNC(=O)C1=NC=N CC1C(CO)C23CN=NC2=CNN13 CN1CC(O)c2ccc1c(O)c2O Oc1cc2c3c(n1)NOC3C=CC2 C=C1N=C2CC3CC1(CN2)C(=O)O3 OC=C1NOc2cc(O)c(Cl)cc21 CC1=CC(=N)OC(C=O)CN(C)N1 NC12C=COC3=C1NC(C2)C3=NO COC12CC3OCC(=C(CO)O1)C32 Clc1cnn2sc3c(c12)NOC=C3 CC12NC3CC1C1(C3)NN=C2C1N OC12C=C3C4C1CC2C31CCN4C1 C=Cn1c(C(O)=C(C)O)csc1=N Nc1cn2c(nc3n2CC3=O)c1O OC1CC23C=C4OCC2C2C4N3C12 Nc1c(O)c2c[nH]nnc-2cc1=O CCC=NN1N=C(C)C2=NCCN21 CC1C(O)C2=C3OC4C(C3=O)N1C24 COC1=C2OCCN=CN=C(N1)S2 C=CC1=C2NCCN=C2C(O)=CN1 CC1=C2NN=CN=C2C=C(O)N1 CC1=CC2(C)CC3C=C2C(=C1)O3 CC1=CC23CC4C(=NN2)C2C3N2C14 CC12CCC3C4=NC1C2C3C(=N)N4 NC1C2NC3COC4=NNC2CC431 C=C1C2=C3NC(=NN)C4C1C(O2)C34 C1=C2CNC3(C2)CC12CC3=CCN2 Cc1c2c(c3c(NN)non13)CC2 NN=C1COC2COCOC(N)=C12 CN1NN2C=COCCN=C2C1=O C=C1OCC23C=C4C(C=CC14O2)C3 C#CC(NC)C1(C)NNC=C1C=N CN1C(=N)C2=C3C(NC2)C2OC2C31 C1=C2CCC3N4C5CNC(C24)C13C5 C1=C2C3CC4(CO1)C2CC1C4N31 C1OC1C1=C2NOC3CC23N=N1 C1=C2CC=C3OCOC(=C23)CCC1 CC1=C2C3C4CC25CC1NC5CN43 C=CC12C3NN=C4C(NC5C4C51)C32 NC12CCC3CC4(C=C31)CC2=NO4 NC12C3CC4(N=C3NC41)C1COC12 NC(CC=CN=C(N)CC=O)=NO OC1=C(C2CO2)N2C(=NC3CC32)O1 C#CC(=C)C(=CNN)N=NC CN=NC=C1ONC(C=O)=C1OC CCNC1=CCNCc2[nH]ncc21 CC(C)(CN)C(C=N)=CNNC=N O=C1CC23C4=NNC2C2C4C2C3N1 CC12NCC34CC5=CC3C1C5C42O NC1COC23CC4=CC1(C=C4O2)C3 O=C1C2C3C=CC14OC1=CC4N3C12 C1COC2CONc3nsc(c32)N1 NC12COC(=C3OCC4NC34)C1C2 CC1=C(O)OC2=NC=NCCON21 C1=C2CCCC23C=C2CCCC12C3 CC1CC2(O)C3=NC1(CN3O)C2N C#CC(=CNO)C1=NCC(C)OC1 C1=COC(C2(c3nccs3)CC2)C1 NC12CC3NC4=NC1CC3(N4)C2O CC12CCON=CCC3=NC1C2N3 O=CN1C2=C3COC4C1C1C2N1C34 OC12CC3OC4=C(OC1C1NC41)C32 C=CC1OC(=O)CNNC=C1N=N O=CC1(O)CCC=NNC1=CN=O C=C1CN=NC(=C2CC=NN2)C1 C=C1C2=NCCC=CCC3C1N3N2 CC12OC3C(=C4CC1C3O4)C2C#N N=C1NCC23CC14CC(=C2O4)CN3 C1=C2c3ocnc3N=NC2CON1 CN=CN1C2=C3OCC4C3C(C2)C41 N#CC12C=CC(=N1)NNC=NCC2 CN1CC2(CO)CCN=NC2=CN1 CS(=O)(=O)N1NC(=CO)C(=N)C1=O CC12C=NNC3=CN=NC3CC1N2 C=C(CO)OC(N=NC)=C(C)NN CNN1C2=NC3C4NCC3(CC41)O2 CC1(O)C2OC3=C4C(N)C(C3)C1C42 C#Cc1n[nH]c2c1C(O)=CNC2C C=CC1=CC(c2cc[nH]n2)=CNO1 CC1C23C=CC4(C)C2=CC(O3)C14N CC=C(C)C1=CONc2ccoc21 C1=C2C3NCC4(CNN=C34)C2CO1 C#Cc1c(O)nc2[nH][nH]c(NC)c1-2 O=C1NNC2=C3C1=NC=NC3C=C2 CN1C=CC(c2[nH]ncc2N)=CN1 CC1c2oc3c(c2O)C1(C)C=CC3 C1=C2C3CN3CC34CC1C(CC23)N4 CC12C3=C4CC(C#N)(C3)N1CC2O4 O=C1C2=C3C4C=CC2(O4)C2NC3C12 C1CC23CCC4(COC1=C4C2)C3 C=CC1C2COC3=C2C2C(C3)CC12 C1=C2OC3CN4CC5NC1(CC25)C34 OC12C3=NOC4CC1CCC42C=C3 C1=CC2C3C=C4OC(C=C14)C2CN3 CC12CC1N1CCC(=N1)ON=CO2 CC12CC3CC=CC1=CC=C2CC3 CN=Cc1sc(N)c(OC)c1NN O=C1CNC2=NCC3=CNC=C1N32 OC12C3=NNC1C2OCCCNN3 C#CC1C(=CNN)N=NC1C(C)C CC12C3C=C4C5C(=O)CC(C41)N5C32 C=CN(C=O)NC=CC=CN=NC CC1CCc2nc(c[nH]2)C=CN=N1 C1=NC2C3C4CN5C(C43)C5C23CN13 C1=C2CCC34COCC(C=C23)(C1)C4 CC1C=CC(=O)C2=NSC(=NO1)S2 CCN1CC(=NC)C(C=NN)=CN1 CC(O)=C1N=C(CC(C)C)OC1=O CCC1CN=NC(NC)=CNO1 CC1C2CC3=C(N)NSC3=NOC12 CC12OC3=CC4(C=CCC41)C=C3O2 CC12C(C=O)CC34CC1C(=NC32)N4 C=C1C2=CC3C(=O)C24NC3C1C4=O C=C1C2C3C4=C(OCO4)C4C1N4C23 CN1C(N)=NNC(=N)C2C=CCC21 O=CC1OCc2ccc1c(O)c2O CCC=C1C(C=N)=CNC(=S)N1O COC1=C(N=N)OCc2[nH]cnc21 CC1C2C3=CC4C2(C#N)CCC14C3 NC1=CON=CCc2[nH]ncc21 CC1CC2C3CC4CC(=C13)C(N)C42 C1NC2=NC34COCC(C1C3)C4C2 C1NC2CC3=C1CN1CC2C31 C#CC1=C2NN3CC3C2N=CN=N1 NC12COC34COC5(C=C1C3C5)C24 ONC1=C2C(=CC1)Cn1cnnc12 CN=C1C(=CO)N(C=N)C(C)=C1O O=c1ccc(=CO)c2n1C=CCN=2 O=C1C2CC3C4=C5CNC(C5)(C14)C23 C=NNc1c(OC)coc1C(=C)O CC1=C(N)c2sc(C#N)cc2NO1 C=C1COCOCC2=NC(=C)C1N2 CC12C=C(CO1)C1CC(CNC2)N1 C=C1CC2=NSC(=NN=CCO1)O2 C1C2C3C4CN3C1C41C3CN(C3)C21 CC1(C2C3C4C3C3NC4C32O)CO1 NC1C23C=CC=C4C2OC(C3)C41O C1=CC23C=NN=C4C2=C1C1NC3C41 OC12C3=C4OC1CC2C1C3COC41 OC12CC1CC=NN=C1NCC2N1 CC1CC23CCC4(CC1C1C2C14)O3 CC1=NOC2C3=CC4C(C=C3)C1C24 C=CCN1C(C)=CC(=O)C1=CNN C1=NNC2=NC3(C=NOC(C3)O2)C1 C1CC23C4OC4C1C21CC2C(N1)C23 CC1CC2C3(C1)OC=C1C=CCC123 COC12C=Cc3[nH]c(c(Cl)c31)C2C CC1C=NN2C3C12CN(O)S3(=O)=O O=C1CC2C3C(=NN=CN1)C=CN23 CN1C=NC2=C(Cl)C=CC=NC2=N1 CC1=CC23CN4C(C(=N2)N1)C4C3N CC1c2nn3c(c2C1(C)N)CC=N3 CCN=C1N=NC(=CO)OC1=O CCC(=N)C1=CC=C(NNC)C1=O C1CC2C1N1C3C4NC5C3N2C5C41 OC1C2(O)CN3C2C2=CC13CC=C2 C=CC1=CNC(=CNO)N=NC1C C1=C2COC3C1C1C4C=C2OC3C41 N=CN=NC1=CNC(CC=O)=CO1 C=C1NC(=O)C2C1N2NC=CC=N CN=C1NC2=C3CC(C)(C2)CC13O CCC1C2=CC3C4C2C2C(C34)C12N C=CCN=C1C(=CO)NN=C1C=C N#CC1C23COC4C2=COC41OC3 NC(=O)CC1=C(O)N=NC1=CO C1=C2C3CC4C2N4C3c2cocc21 N#CC12C3=C(C4NC1C4O3)C1OC12 C#CC1(C=O)C=CC(C=N)=CNN1 C#CC1(C)c2sc(c(O)c2O)C1O C=NNc1cc(CO)sc1C=NC C=CC=C1C=C2C3=CC4C1C2N4C3 O=C1C2C3=NC14C=CCC2(CN3)C4 CCC1ONC=C2N=CC(C=O)=C21 NC(=CC=O)C1=CC(N=O)=CNN1 N=c1ncn2c(c1O)C(O)=C(O)C2 ClC1=CNN2C1=NCCCC1CN12 N#CC12C3C=CC14C=C3C1C2N1C4 C=C1C2=C3OC4(C)C1N1C2CC3C14 C=C1C2C3=NCC2(O)CC1(C)N3 CC1NC2C3=CC(O)C24CC31CO4 CC1=CC2=NSC(=NOCC1=O)O2 C1=C2c3c[nH]nc3NC23CCN1C3 CC=CC1C(NO)=CN=NC1C#N CN1Cc2ccsc2C(=CNO)N1 CC12CC3=C(C1=O)C1(C=CC3=C1)N2 Cc1cccc2c1=CC(O)=CNN=2 C=CC(=C)C(=N)NNC1=CN=NC1 CC12CC13C=C1C=NN=C1C3CO2 OC12C3OC4C(OC5C=CC41C5)C32 CC12NC3=NCC#CCNC1C2N3 C#CC(C(C=NC)=CNO)N1CC1 c1nn2c3c1C(CCNCC2)CN3 CC1(O)C(=CO)C=C2NC(=O)C=C21 CC1OC2C3C4C=C1C21CN3CC41 CC1N2NC(=O)C34OC3C3NC3C124 O=C1C=CC2=C3C4CC2CC13CN4 CC1CC2C3(C=CC4CCNC423)N1 C1=C2C3(CC1)CNC21CNN=C1C3 ON1C=C(Cl)C2=NC(C3CC3)CN21 C#CC1=Nc2c(N)c(=C)[nH]c2=NN1 C1=C2CC3C1C1C=C4CNC2C4N13 CC1C(NNC=O)=CN=NCC1O OC1CC2(CCC3(CC(O)C3)N2)C1 CC1=NC2=C(C1=CO)N(C)C1CC21 C1#CC2=C3C=CC(=COC1)C3CC2 NC12CC3C4C5=C1OCC5(O)C2N34 C1=C2C3CC1NCC1CC4C2N4C13 CC1=C2C3=NOC24CCC3(O1)C4=O O=C1N=C2C3C4OC3C1(C4O)N2O OC=C1C2=CN=C1OC=COCC2 C1CON=C2OC3CC2N=C3NN1 CNC(N=O)=C1NC(=O)C=C1C NC12CC3=C4C1OC=CC4(CC3)C2 C1=C2C3=NOC4C1C1C2N1C34 O=CN1CC23C4COC2(CCN43)O1 C1#CC2=CSC(=NC=NCC1)N2 N#CC1=C(O)OC2=NCCCN21 N=CNC1=C2C3OC4(C1)CC3OC24 N#CC1(C23CC4C(C2=O)N4C3)CC1 CC(N=O)=C1C=Nc2nscc2N1 CC1OCC2C3C=C4CNC12C4=C3 C=C1C(=CN=N)NC(=O)C1=COC C1C2N=C3NOC14OC1C2NC1C34 N=C1CC2=CON(OCC=O)C2=N1 N=C1NC2CC3CC(N)=C1C1C3C21 O=C1C2C3CC45CCC(N4)C(C15)N32 CN=C1C(=N)C(=CO)N=CN1C NC12C3C=C4CC1C1OC4=CC1C32 CC1(N)C2=NC=CCCCC1CN2 C1=C2CC3=CCC(CCC3O2)NC1 CC1NC2CC23N=C2SC=NN2C13 N#CC12OC3=C4C5CC(C41)N5C2C3 N#CC(O)C1=CNNC(=N)CN=C1 C#CC(=C(C)N)c1nc(N=O)c[nH]1 NC1C2C3=CC4(CC5C3C5C24)C1O O=C1OC2=C3C(=NOCC3O1)C=C2 CC12C3CC4C5=CC(C(C5)C41N)N32 C1=NOC2=NC13C1CC4C(C1N2)C43 C=CC1(C=O)C=CC(C=N)=CNN1 CC1C2C3=CNNCC3=NCCN12 C1=NOC23CC4=CC(CC4C2)(C3)N1 C#CC1=C(Cl)C=CC2=NN=CON21 C1=C2C3CNC24CN2CC4C1(C3)C2 CN1CCC23NCC4C5C2N5CC413 OC12CC3OC=C(C31)n1cccc12 OCCC12NC3C4=C1C1C(O4)C1C32 ONC1=C2N=NC3CCC23CNC1 C1CC2CC3(O1)C1CC24CC1NC43 O=C1CC2C3N=C4CC1(C3O)C2N4 C1C2=C3OC1C1OC(C2)C1C1OC31 CC1C2C3N2CC12CCOC1CC132 CC1=C2CC3C=C4COC1C4N3C2 C1=CCC2CC3(CCC4C3N24)NC1 CC1=CC(C)N=C2C(=NON2N)O1 C1=NNC=C2C=NC3CC2C3CO1 C1CC2N=C1NCC1CC3C(O1)C23 CC12CC1N1C(O)=COC(=O)C1=N2 C1=CNC=NC2CNNC=C2C=N1 C=C1OC23CC4=CC2C2C1C(O3)C42 O=CN1C2=C3CCC4C(CO2)C1C34 C#Cc1cc2c(s1)SC1=NCCN12 NC1CNC2C34C=C(CO3)C12CO4 CCOC1CNCC(NN)=CC1=N OC1=CN=CC1=C1NNC2C(O)C12 CC1C23OC=CC2CN2C=NCC123 CN1C=CC23CN=C1C1C(O2)C1O3 CC1=CNN2CC2CCN=CN=N1 CC1CC23OC4=NC2C1CC3N4 N=c1cc(-c2onc3c2NC3)[nH]s1 C1=C2CN=C(N1)NOCC1CC2N1 C1#CC2=C3COC(=NNC1)C3CO2 CC12OC3=C(O1)C1C(C3)OC12C#N C1#CC=NN=C2C=NN3CC23C#C1 NC(C=CNO)=Cc1cc(=O)[nH][nH]1 C=CC(O)=C1N(O)C=C(C)S1(=O)=O CC1ON=C2c3ccsc3NN2O1 CC1N(C)CC2C3NC=C(C#N)C231 CCN1C(O)=C(C)C2=NOCON21 N=C1C=NOC1=CNN=CCC=O NCC12CC34CC3(CN3CC34)C1O2 N=Cc1[nH]cc2c1NN1CC21C=O C=COc1cc(O)cnc1N(C)O OC1=C2OC3CC(C3)N=C2N(O)N1 NN1C=C(O)N2CC=CC(=O)N=C12 C1=NN=C2CC34CC5OC3C2C15C4 C=C1CNC2C1=CC(N=N)=C2NO CC1N2N(C)C(=O)C3N(C)N=CC312 c1n[nH]cc1C1=C2COC(CO2)O1 N#CC(=CN=O)C=C1C=CC(=O)N1 CC12CC3(C)OC1C1C(=N2)NNC13 C#CC12C=C3C(OC4CN1C34)C2=C NC1C2C#CC3=NCC(COC12)N3 CC1CC(C=O)(N=NC=CNO)C1 CC12OC3C1C=C1C2C2=NOC13C2 C1=C2COC1C1C=C(CO1)OCO2 CC1CONc2c(N=O)[nH]c(N)c21 CC1=C2C=NCCCC(=O)N(C2)N1 OC1C23C=C(CC2)C12C=CC(=N2)N3 C1NCC2=NOCC3=NN=C1C32 C1=CC23C=C(C1)C1CCC(=C12)CC3 CC1=C2OC3(C=NOC4C2NC43)O1 C1=C2CC3(CC4OC1=C3O4)C1NC21 C=C1CNN2C1(C1CO1)CS2(=O)=O C=CC(NN=CC)=C1C=NC=C1O OC1=C2C(=NCC3OC23)OC=C1 C1=CC2C3=COC2C=NOCCC13 NN=C1C=C(N)CC2COC(N)=C12 CC1CC2=CCC3=NNCC(=N1)N23 C1=C2C3NC4CN5CCC2C5(C1)C43 OC=C1C=CC(Oc2nc[nH]n2)=N1 CC1=CNC(=N)C1=C(C=NO)N=O C#CC1=NNC2=C(C)N=NC12C C=C1C2=C3CC1(O)CC31OC=C2O1 C1=CC23C4=CC5C(NC52)C4CC3O1 Cn1ccc(NO)ccncn1 CC1C23CNN=C4C2OC(C3)C41O Nc1n[nH]c2c1NOC=CC2=CO NC12C3=NOC1C1C(=O)NC(=C3)C12 CC12CC3C(C=C4COC3(C1)O4)N2 Cc1[nH]nc2c1C(N)=CC2CC=O C1#CC2NC(=NC3CC32)ON=CC1 C1=C2C3C(=NOCC3C1)NN1CC21 CC(=CNO)C1=NCC2CC1C2N O=C1CC2C3(CCN4C=NCC243)N1 N=C1NC23CC24CC=NN4CC3O1 CC12OC3C4C1=COC21C=CC4C31 C1=C2N=C3NOC4C(O1)C1C2N1C34 NC12C3=CC4CC(NC1CC=C3)C42 CC1N2C3C(=O)C14CONC(=N4)C32 CC12C=C3CN4C5CC(C1)C3(N2)C54 C=C1C(O)=CC=C1c1cn[nH]c1C CN1CC2=C(N1)C1NCC1CN=C2 C#CC1=CC(=C)ONc2c[nH]nc21 OC1C23C=C4CNC1(CN2)C4=CC3 c1nc2oc1NCc1cc(ns1)N2 CC(C)=C1C(=CNN)N=NC1(C)C CC1=NCC23C1=CNN2CC3C#N N#Cc1cc(=N)nc2s[nH]c(N)c1-2 N=C1N=C2N=CC(=N2)CC2CC1N2 CCN1C(=O)SN2CCC(=N)N=C21 NC12C3=C4OCC1CC2C1C4OC31 C1C2CC1C13ON=C(O1)C1C3CN21 C1=Nc2cc(cs2)C2C=C(CN2)N1 OC12CC(CCNc3ncc1s3)C2 CC1CN=CC(NC=NO)=C1NO C1#CC2ON=C(O2)C2OCC(=C1)O2 CCC=C1C2CC3C=C4OC13CC42 C=C1C2=CC34CC2C(CO)(CC13)O4 CC1CC23C4C(=O)CC2(CCN43)O1 OC12C=CC3C4C5C=CC31N5C4C2 O=NC1=C2C=CNOC2S(=O)(=O)N1 N=C1OC(N)=C2C1=CNOC2C=O C1=CC23CC4CC2C(=CC2C4N23)C1 C#CC1=C(O)C(=CO)C(N)=CC1=O CC1CNNc2c1csc2N=N O=C1NC2C=C3C4C5NC13C2(O)C54 O=C1CC=CCN2N=CC(=N1)N2O Cc1cc2c(c(=N)c(NO)n1)OC2 OC1=Cc2c(c(O)c3n2CCC3)C1 CC12CN1CC13C(OC4CN1C4)C23 CCN1C2C3CC4=C(O3)C2C1C4C N#CC12NC3CCC(=CS1(=O)=O)C32 CN1OC(=O)C(=NCCO)C1=CO OC1=COC=CCc2c(Cl)c[nH]c21 C=CC12CC3C(=O)C14C=C(O2)C3C4 CN=CC1=C(C=CN)NN2CC12C C1C2NC3C4OC(OC34)C3C2CN13 O=C1CC(N2NCC3N=CN=C32)C1 O=NC1=CC2=C(C1)NC(=O)S2(=O)=O NC1=NN2OCCC=CCN=C2O1 CC1C2CC3=C(NCCNC3=O)N12 C1=CC2COC3C4C1C1CC23NC14 CC1=C(N)C(=CNO)C(=O)C=C1O N=C1CNN=CN2C=C(N1)C1CC12 OC12CC3C4=NNC5(CC1N3C5)C42 CC(=O)C(=N)C=C1CC(=NO)ON1 N=NC=Cc1occc1NNC=O CC1=NC2C(C)(CC23OC=NO3)N1 NC1C2N=C3NC1C1COC3=CC12 Clc1cc2c3c(c1)CCN3CC=C2 CC12C3CC4CC3=C(CC41)C1CN12 CC12OC34CC1C2C31C=CC4CO1 C#CS(=O)(=O)CC1NNC=C1N=O O=CC1=C2C3=NN=CC3=C2C=CN1 NNC1=C2C=NC3CC23C2CC1O2 C1NC23CC4CN5C2C1CC5(C4)C3 CC12CC3NC(=N)C14N=C(NC34)N2 C1OC2C3OC3C13C1OC1C1NC123 CNC1=CC2=NCC=CN2C(O)=C1 CCC1CNNC1=C(C=NC)CN OC12C=CC34C5C=CC3C1C5CC24 CC1=Cc2c(ncc(C)c2N)NO1 OC12CC=C3OC4(C=CCC4=C31)C2 CS(=O)(=O)C(=N)C(=CNO)CC#N CC1=C2CC3CC4C5OC2C3(C1)C45 CN1CC(=NO)N=CC=CC=CN1 C=C1C(=CO)C(=C)c2c(Cl)c[nH]c21 CC1=C(NOC=NO)CC(=O)C1=N CNC12C3CC4C(=CC5CC1N54)C32 CN=Nc1ncsc1C=CNOC Cc1cc2[nH]c(=O)occ-2c1N=N C1=CC23C4CCN2C2CC1C3OC24 ON1CCC23N=C1C1CC2NCC13 N=C1C=C2N=CC(=N2)CC(=O)ON1 CC1C(C#N)C12C1C3OC2(C)OC31 OC1C2=NOC34CCCC(=C23)C1C4 OCC1NC2CN3C4CC1=C(C4)C23 C#CC12C3OC1C1=C3C3C(N)C1C32 O=Cc1cnc2ccc(N=O)c-2[nH]1 CC1(C)CN2NC=CC2=C(O)C1=O C1OC23OC4=NNC2CCC3C1N4 C=CC12C3=C4OC1CC2C(C3)C4O O=C1CC#CC2C=C3CC1CC3N2 OCc1cc2c(O)c(c1Cl)C1OC21 CCC1=CC(N=O)=C(C)NC(=O)O1 CC1=CC(=N)CN(N)C(=O)CON1 CCN=c1ncc(=N)c2c([nH]1)CN2 NC1C2CC3C4C5CN5C=NC34C12 C=C1CN=NC=C(N)c2nc[nH]c21 CC1CC2=C(O1)C(=N)C(=CO)N2O C#CC1(C2=NOC(=CO)C2=O)CN1 C1CC(N=C2NNC3CNN=C23)C1 NNC=C1C=NCC2CC2OCO1 O=c1on2cnnc3c2c1CCN3 CC1=C2OC3CC1N1C(C=NO3)C21 C1=C2OCC34OCOC=C3C1CC24 C1=CC2CN3C4C=C(CC2C43)O1 CC12CC3=NOC4(CNN=C14)C3N2 CC(O)C1N=NC(N2CC2)=C1NO OC1=C2NOCC2n2cc(Cl)cc21 CN=NC(OC(C)C)=C(CO)NO C1=C2C3C4CCC5C3N5C2CC1N4 O=NC1=CC2=CNOC2S(=O)(=O)N1 C#CC1=C(O)c2c(n[nH]c2C)CN1 C1=NC2CC3OCC4(CCNC234)N1 CC1=CCC2=C(N=NCCON2)O1 C1C2NC1C13NC1C1(CC1)C1NC213 C1=NOC2OC3=CC2C2C1OC2C3 c1oc2c3c1C(COCCO2)OC3 C1#CC2OCC3=CC(C=C32)ON=C1 C1=C2CC34CC1(CO2)C(CO3)CO4 C1=C2C3CC4(CCC5OC4C25)C1O3 c1[nH]c2nc1Oc1cc(ns1)CO2 C#CC1CN2C=C(N3CC3)SC2=N1 C=NNC=CN=NCC(O)C(C)C Nc1oc2nccc3ocnc1c32 CC1C2NCC3=COC4OC2CC341 COC12C3=CC4=CCC(C1CO3)C42 CC=CC1=NN2N=C(C)SC2=NO1 CC1C23CC4C=C2CC(C3)C41C#N C1=C2CCC3NC4CC(=CC1)C23C4 CC1C2=CC=CCC#CC3C2OC13 CC12C=C3C4=COC(CC3O1)(C2)O4 CC1C(C2=C(NO)CN=C2)N1C CN1CC23NCC2(C)N=CC=C3N1 C=C1C=CC23CC14CC2=C(CN3)O4 C1NC2=NC(CN3CC1C3)C1CN21 OC1=CC=C(c2sccc2O)NC1 C1=CC23C4COC25CC1N3CC5N4 NC1C2CC3ONC4=NC31C(C2)O4 CCCc1cc(N=N)c2[nH]occ1-2 CC12Cn3cncc3C=C(O)C1O2 CC1OC2C3C1C14C=CCC1(N4)C23 CC1=C2CC3(CCC4(O)CN3C24)C1 C=NNC1=C(C)C=C(N=O)CC1=O C1OC2C3OC4(CC3C3(CO3)C4)C12 N=C1CNC2CC3=NN=C(N1)C3C2 CC1=C2CCN1N=CNCCC2=O C=CCCCC(C=C(C)NO)=NC CC12NC3C4=NCC3C1C2C(=O)N4 CC1C2=CNC1CCCONC2=N Cc1nc(C=CNN)c(C=CO)o1 CC1=Cc2c([nH]c3c2N=NC3)OC1 NC12C=CC34C(=C1)OC1C(OC13)C24 C=C1C2(O)CC3(N)C=C4CC13OC42 C1=CC2=NCC3=C2C(=CO1)CNN3 N=C1NC23CC45CNC2C4OC3C15 CC1N=C2CCCCC#CC3C1N23 CC12C=C3CN4CC1OCC42C3O NCc1ccc2[nH]n(O)nc-2c1=O CC1=CN2NC(=S)NN=C2C=C1O CC1=COC2=NOCCNC2=C1Cl C=C1COC(=O)C2ONC=C2C1=N CC1=CC(=CO)C(OC(=N)N)=N1 CCCC1N2CC3N=C4NC31CC42 N#CC1NNC2=C(C3CN3)C=NC21 C=NNc1c(CCN)csc1C=N C=C1OC2=CC13CC1(C)CC3=C2O1 N=C1Nc2cc(N3CC3)sc2C1=N C1=NOCC23CC1=C1C4C(CC12)N43 C1C2C3NC2C2C3c3n[nH]nc3N12 O=CC12CC3C4=C1CC1C2C3N1C4 C=C1C2C3C4=CC15CC4CC5(C)C23 CC=C1C2=C3CC(O2)C2(C)CC1C32 C1=NC2C3NCC24OC=C(O4)C3N1 CC12NCC34CC1C1N(CC13C)C24 C=C1CC2C(O)C3N=C4NC2C13N4 NC12CC3C4=C5OCC(C5C1O4)C32 OC12C3NC4C=C5OC1C2C5NC43 C1NCC23CC4CC25CC1C3C4C5 CC1C2CC(N)C13NNC=CC3=N2 CC1CC2C(N)C3CC4=NC13C2N4 CCCC=C(O)c1cc(NO)c[nH]1 CCC(C)CN1C(=O)N=NC1=CO CC1OC2=C3C(CC2)CCC(N)C31 C1=C2COCCCC3=NNC2C3=C1 S=C1NN=C2COC3=CC=NN1C32 C1#CC2=NC3(CC3)C(CON=C1)N2 C1=CC(On2cc3c(c2)NC3)=CC1 C1=CC2NN=C1ONC=NC1CC12 C#CC1=C2C3NCC4C2C2C1N2C34 C1=CC2NC1CCNc1nc2c[nH]1 C=C(C)C(=CC=CO)c1cnc[nH]1 OC1C2=CC3CC4(O)CCC31C4O2 C1CC2C3=NC4CC4N3C3C1CC23 CC(=O)C(C)=CC1=NN=NC1=CO C=C1C2C3C=C4CC2C(N)C14C3N On1occ2nc(C3CCO3)nc1-2 CC12NC3C4COC(O4)(C4CC41)C32 CC1C2=CCC3C4C5CCC23C5N14 C1=C2C3=NOCC24OCC3(CO4)O1 O=CCC1=C2CC3C1C1C=C2CN13 NC1CC23CC45CCN2C4CC3C15 C1=C2c3c(c[nH]c3CO1)C1CC2C1 CN1OC23C4C=CC2(C=CC43)C1=N C1OC2C3=C1C1CCC1C3N1CC21 Oc1cccccc2[nH]c1cc2Cl C1=C2CCC34OC15COC3C5CC24 Clc1cc2c3c(c1)NCCC3CC2 CCC1CC23C=CC4C(C1=C2)N43 C=CC12CC3OC4=C(CC1C=C4)C32 C#CC1OC2=C3OC(C2)C(C)C31C O=C1C2=NCC#CC=NN1NC=C2 CC1=CCC2=CNC(N)=NC2=NC1 CCC1=C(C=NC)OS(=O)(=O)ON1 CC1N=C2C=NC(=N2)CN2CC1C2 CNC(=N)C=C(NOC)C(C)=CN NC12C3OC4C3C(C3CC3)C1C42N OC=C1CC=NNc2c(Cl)coc21 CC1C2C(=N)N3C(=NCC4CN43)N12 NN=C1CC2OC3C4CC1=C(C4)C23 CC12NC3C4C1=CC1OCCC12C34 COC12CC3C4C1=C1CCC2(C1)N34 CON=C1C(=O)NC2CNC(N)=C12 NC1CC2N3C4C5=NNCC52C1C43 CC1C2COC3C(=O)C4CC32CN41 C1N=C2NC(=NO2)C2CN2C2CC12 C1=COCC2(C1)NN=C1SNN=C12 NC12CC3C4C5C=C1CCC2(N5)C34 CNC1=CC=C(N)c2c[nH]nc2C1 NC12C3CN4C(C5C(N=CN3)C51)C42 OC12CC1C1NC13C1CCC23CN1 NC1COC23CC4(C=C12)CC=C3C4 OC12CC13C(NCC1CN13)C1NC12 CC1=C2CC34CC2C(N)(CN3)C14C O=C1C2=C3CC4NC1C(CO2)C4N3 C=Cc1n[nH]c(C)c1C(=N)C1CO1 C1=C2CC34COC5C(CC2C53C1)C4 Cc1sc(=N)n2c(=CN)c(O)cc12 CCC1C(=N)C(=CNO)C(C)C1=O CN1N=C2C3NC4C3N3C2C3C41C CC1=C(NOCOC(=N)N)CN=C1 CC12CC3OC=C(CN=CN1C2)O3 CN1CCCC=Cc2n[nH]n1c2=N CC1=Cc2cn(c(=O)[nH]2)CCON1 C1=C2OC3C4C5CC(O5)C34C2OC1 NC(=S)n1cc(O)c(C(N)=CO)c1 NCC12CC13N1CC1C1CC13CO2 OCC12CC3=COC4(CC1N2C4)O3 NN1C(=O)C(N2CC2)=CC1=CNO CC1C(C)C2C3C1OC1=CC3N2C1 C1CC2=NNC3=NCC(C1)OC3C2 C1=C2CC3CC2C(=N3)NNCCO1 O=C1C2OC34OC5CC3C2OC14C5 O=C1C23CC4NC2C(=NO3)C14O CC12NC3=CNC=CC3=NC1C2O CC12CCNCC3CC1C(=NC2)N3 CC1=CCCCN=C2N=C1N(N)N2 C1=C2OC3C4C5OCC2(C5NC1)C34 C1OC23CNC4=NC5C(CC42)C1C53 CN1N=CC2CN3CCCC34CC214 CN1C=CCC2=CC3CC2N3N=C1 NC12CCC3CC1C1(CC2=NO1)C3 C=C1OC2CNC3C4C5CC23C1C54 CNC1=C(C#CCO)NC(=O)C1=N CN1C(O)=CN2CC(=O)ON=C21 C=C1CC2=C3C4CC(O)(C4C2)C13O C=C1C2C3=NC14CCC2(O)C4N3 CC12N3C(=O)OCC31CNS2(=O)=O C1=C2CNCC(N2)c2n[nH]cc21 OC12C3=NN=C1OCCC2CCO3 CC1CC2=C3CN1C1C(O)C(O2)C31 CCNNC(CC)=C1ON=CC1=O OCC12C3CN(O)C4=NC3CN1C42 C1=CC2=CCC3N4CCC(CO1)C234 CC(=CC1N2N=CC(O)C12C)CO Clc1cncn2c1cc1snnc12 C1=NNC2=C(N=NC1)NC1CC1C2 CC1CC2C34C=C(CC3)C2(C)C1C4 CC12C3C4OCC5(CN1CC4O5)C32 O=CCC1=C2C(O)=CC=C2C(=O)O1 C=CC1Cc2c(c[nH]c2C#N)N=N1 C#CC1C=CC(N)C(=CNO)N=N1 CC12C3OC4C1C1C(=O)CC4(O3)C12 CC(CN)C1=C(C=N)CC(=O)ON1 OC12CN=C3NCC(C#CC1C2)N3 CC1CC2(O)C3=COCC2N2C3C12 COC12CNC3CC1C1=NC32CN1 OC12CC1C1=CC2CC#CCNC1 CC12CC3C4C5CC1(C(O)CC52)C34 COC12CC=C3C4=NC(C1N4)C32O CC1C2CC(=O)C(N=O)=CNNC12 CC1C2N=C3C4C=CC(C42)C1N3C CC=C1S(=O)(=O)CC2(CC2)S1(=O)=O NC1C2NC34CC3(OC12)C1CC4N1 CC=C1C2=CC3N(C)C1C1C2C13N O=C1ON=C2OC3C4C12C=CC34O NN1C=NC23C4CC(CCC2C13)O4 CC12CC3CN1C1C2C2=CC31C=C2 C=C1CNNC=C(C=N)S(=O)(=O)O1 C1C2NC3C2C2NC4C5NC13C2C45 C1=C2OCC34CCC5NC53C1NC24 CNC12CC3=C4C5NC3C5C1CC42 CC1N=C2NC13C1CN4C(CC43)C21 C1N=C(NCC2CO2)c2nnsc21 C(=C1CC2OC(O1)C1OC21)C1CO1 OC12CC(CNCC3=CCC1=C3)C2 CC1=C2C3=CCC24CC(C)C3(C1)O4 O=CCC1=C(O)c2ccsc2ON1 CC12NCC34OC5OC3C1C5(N)C24 C=C1CN2CC1=CCCC(=O)C=N2 C=C1C2C3=CC4(C(C)O3)C1CCC24 CC1C2C3=CC4OC2C(=O)C41C=C3 N#Cc1[nH]nc2c(C=N)cncc12 CC1=C(C)C2=C3N=CN=C3N=C2C1 CC1OC2C3=CC14CC1C3N1C24 C#CCCC1=CC(=N)C(=CO)C=N1 C=C1C2N=C3NC2C2(O)C=C3CC12 C=C1C2=NN(C)C3COC1(C3)ON2 CN1C=C(Cl)C=C2NCCNN=C21 O=CN1C2C3=NOC4(O3)C2NCC14 C=CC=C1ON2C=NSC2=NC1=O C1=C2OCON=C2N(OC2CC2)S1 C=C1N=C(N)C(CC(=O)NO)=CN1 CCC1CN=NC(=CNO)N(C)O1 C1ON=C2NCC(=NC3CC3O1)N2 CCC12CC3=C4C5OC5C(C1O3)C42 NC1=CN2OCCCC(O)=C2C1=O Cc1coc(C=C(O)C=CN)c1 C1=C2CNC34CC(C2)C2C(CC13)C24 CC1CC2=C(CO)ON(N)C2=N1 CC1=Cc2c(c(=O)sn2C=O)NN1 CC12CCNCCN=C3C=CC1N32 CC12OC3OC4=C1CNC2C3(N)C4 CC12ON=C3C4=CC(C31)C2(C#N)C4 CN1C2CC3(C=CC2=C3)N1C(N)=O O=C1C2CCC13C1=C2C2NC3C2O1 O=C1C=C2C#CCCC3CC3C1=N2 C=NOC12ONC3=NC(C=C31)C2N CC1(C2=Nn3ncc(=O)n3C2)CO1 CC1C2NCc3c(N=N)c[nH]c3C12 OC1(C2(C3OC=CO3)CN2)COC1 CN=Cc1scc2c1NN=CN2O C=CC1=C(N)C(=O)C(=C(C)O)C=N1 CC(C=N)=C1NC(=O)NC(=N)C1=O CC=C1C2N=C3NCC2C2(C)C1C32 CC1=CC2C3=CC=CC2NC2C1C32 C=c1c(=CC)oc2c(N=N)c[nH]c12 C1=CC23CC4CC2C2=CCC4(C3)C12 CNCC1=C2C(=N)NC=C2C(=N)C1 C#CC1=NNN2OC=CCCN=C12 O=C1CC(O)=C2C1=CC=NS2(=O)=O Cc1c(=O)[nH]n2c1cc1ncsn12 C1CC2C3=NNC24C(C1)C1CC4C31 CCC12CCC3(C1)NC2=NC=C3C C=CC1NNC=C(C=N)CC1C=O C#CC1=C(NN)C(C#CCC)N=N1 CC1C2=C3C(=O)C4C1N1C2CC3C41 N=C1CC2C3=C4CCC3(CN2C4)N1 CC1C2C3CCC4=C3C(C)(CO4)C12 C=C1NC(C)(C)Cc2[nH]oc(=O)c21 CN1C2CC3(O)CC4=CC13C(O)C42 CCC1CN(C)C(N=NC)=C1NN CC1(C)N(N=c2nco[nH]2)C1(C)C CC1CC23CC4C=C2C(C=C1O3)O4 NCC12CC3CC(=C1O3)NC(=S)N2 C=C1N=C2NC3C4C(=C)C2NC1C34 CC1C2C(O)C3=C(N)NOC3=NN12 C=C1C(=O)NC(CC=O)=C1C=N NNc1ccn2c1C(=O)C=C2 CC12CC3=C4C(=NO)CN1C4C2O3 CC12CC3=CC4C5C3C(C)(C1)C2N45 CC1C=C(N)c2sccc2NO1 CC12CC3=C4C5NC3C1C5C1C4N12 NN=CC1=C2CON=C2C=C(O)N1 OCC1C2c3c(NO)n[nH]c3CN12 C=C1CC(C)ONC=CC=NC=N1 CC1=C(O)C2=NCC=CC=NN2N1 CN1CCNNC=C2C=C1OC2=O CC1=C2CC3C4NCC(C2)(C3O)C14 NC1=NC=C2C(=NN=CC2N)C=C1 CC1N2C3=NCC4OC(C34)C12C#N CCC1C(NO)=CC(=N)C(=O)N1O ON1C2=NC3CC3C2=C2CC=NN21 CC12C3C4C=NOC4(CN31)C2C#N CC12C(N)CC3CC1C1=CC32C=C1 Cc1c2c(nnc(NN)c1=O)CO2 Nc1n[nH]cc1C1=C(N=O)CCO1 Cc1[nH]cc2c1C1CC1(N)CN=N2 C=C1OC2=C3C(C=C2)OC(=CC)C13 OC12CC3C=C1COC2=CCOC3 C=C1OC23C=CC4C5C2C1=CC3N45 CC12CC3C4CC3(C)C1=C4C=NO2 C1=CC2ON=C3C2=CN=C3ON=C1 CCC(=N)C(C(=O)O)=C(CC)NN C#CCC1C2C3=CN4CC4C3=NN12 C#CC12COC3(CC(=NO3)NO1)C2 CC1=C2CN=CNN2C(=CO)C1=N c1snc2c1C(C1NC3CC1C3)N2 CC1CC2=C(C(N)=O)SN(N)C2=N1 O=C1CC2=C3CC14CC3(CN4)CO2 CN1N=C2C3C1C(=O)C3N1CC21 CC(NO)=C(C(=N)C=O)N(C)C=O COC(=CNO)C(=N)C(=O)C1CN1 OC1=C(O)N2CC=CC=NN=C2S1 C1=CC23C(C1)C2N=C1C=NNN13 CC1C23CCC4=C2C=CC41C(=N)N3 CNC1C(=N)C(CO)=CNOC1=O N#CC1C=C2C3(CNS2(=O)=O)CN13 CC1NC1C1=CON=C2ONC=C12 C=C1OCc2nncn3ncc1c23 NC12CC(C1)ON1C2C(O)S1(=O)=O C=C1OCCN2C=NC(=NC1=O)O2 CC1OC2=C3C(CC2)NN(C=O)C31 O=C1ON=CC(O)=C2C=CON=C12 CC12C=C(CN1)N=CNCCC2N CN1C2CC3C=CC4=C3C(CC4)C21 CC1=CN(N)N2C=CCCON=C12 c1cc2nnnc3n2c1CNCC3 C1=CC2=NCC34C=COC3C24ON1 C1=C2CCC3C4C2CC12CCN4C32 C1=C2CC3N4C2CCC4C1C31CO1 C=CC(=CNO)C(=NC)C(=O)CC CCN1C(=N)OC(=CC=CO)C1=O C#CC(N)=CC1=C(C=NC)CON1 C=C1N=C2CCC=C(C)C=CC1N2 CC1NCC2(C3=NCC4CN34)NC12 NC1C2=C3C4C1C4C1C2C(O)C31N CC12CC3=NNC4C(=CO1)OC2C34 C=C(N=C(C=C(C)N)NC=N)OC CC1C(N)C2=C3C(CC2)OCOC31 C1=CC23NNC4=NNC(CC42)C3=C1 C1NNc2nsc(OCC3CO3)c21 c1nnc(C2(C3OCCO3)CO2)o1 CC1=C(N=N)C2CN2CC(=O)ON1 CC#CC1=c2[nH]c(=S)[nH]c2=CC1=N C=CC1OC2=C3C(C=CC31)C(=C)C2 CN=CC=C1CC2N(N1)C2(C)C#N O=CC=CCCONC=CN=O CC12C3=COC4CC1(CO3)COC42 O=C1C2=CNC13C1C2N1CC31CC1 N=C1N(N)CCC=CC2=NN1CC2 CCC(=O)C1=CC(=C(C)NO)N=C1 CC12C=C3OC14C(O)CC3C4CC2 C1C2CC34CC(=NC3C3CN3C14)N2 O=C1ON=C2C34CNC(C3)C12OC4 C#Cc1cc[nH]c2c(NO)nnc1-2 C=C1CC23CC4(C=NN2)C=C1C3C4 CCC1=CC(=N)C(C)OC(=N)NN1 CC1=NOC23CCC4=CC1(C=C42)O3 C=C1CNc2cocc2C(O)=C1O C1=CC23CCC14NC=NC42C=NO3 C1=CC2NC3C4C5C=CC2(C4C1)C53 N#CC1=CC(O)=C2CNN=C2C=N1 N=C1ON=C2C1=CNN1C(C=O)C21 C=C1CNC(=C2CNNC2=O)NC1 CC12C=CC3C(C(C=CNN)=N1)C32 NC1C=CC2CC23C2C4CC13CC42 NC(C=C1NC2COC1C2=O)=NO CC#CC12C=C3C(CN4CC1C34)N2 CC1=CCC2N=C3C(N)=NSN3C12 C1=CCc2cnn3c2ONC3=NC1 N=C1C#CC2NC3C(CCC23)CN1 CC=C1C(=O)NC(C)=NC=C1C=N CN1C2CC3(C)C1C1(C)C2=CCN31 CN=Nc1[nH]cnc1C=CN1CC1 NC12C3CC4C(OC5=CCC41C5)C32 CC(CC1ON=C2C=NC=C21)=NO N=C1NN=CC(C=O)=C2NOC=C12 CCC12NC3CC(=C1C3)CC1OC12 C=CC=NN1N=CC=C2CNN=C21 CC1Cc2ncn3cccc(c23)N1 CC12C#CC=CC3CC(O1)C(=C2)O3 CC1=CCCN=C2NC(N)=C(O1)O2 COC12C3=NCC4(N3)C(C)OC1C42 C1C2CC34CONC(=NC1C2C3)N4 Cc1nc(O)c2nnoc2c1C=N NC1=CN=C2C(=NOS2(=O)=O)C=C1 N=C(N)NC12C=C3C4CN(C3C1)C42 CC12CC3=C(CC4CC1(CO)C34)O2 CC1C(N)C2CC3C=C2C2C3CC12 C1=CN2C3CC=C(CNN=C1)C2C3 NC12C3=C4CNC3CC1(O)CC2O4 CC1CNC23C4CNC2C(O4)OC13 O=CC1CC23CC2C2CCC3(O1)O2 CC(=N)C(C(C)=O)=C(C#N)NO CC12COC(=N1)NOCC1CC1C2 NC12CC3C(C#CC4CC1N4)N3C2 CC12NN=C3C4C1C1C(CCN41)C32 C#CCN1CC2=CN=C(N)OC2=N1 N#CC12CC3=CC4(CC1OC4O3)O2 CC12NC1C(N)C1=C2C(=N)C(=N)N1 O=C1C2=C3CC1C1CC(N3)C1C=C2 CC12C3C4NC(C4C1C1(O)CC1)C32 CN1NC=NCCCC2CNC1=N2 NC12CC=C3C4=CC(O)(C(C1)O4)C32 NC12C(O)C3C4N3C1C1C=CC42O1 CC1=C2OC3(C)C1C1N=C2NC13C C=C(C)C12CC1N1SNC(=O)C1=N2 CC1(N=NC=CNN2CC2)CC1O O=C1C23CCC14NN=C2C4CNC3 NC1C2C3=CCC24CCCC1(O3)O4 N=C1OC(=O)OC1=C1NC=CC1=O CC12CC1C=NOCc1cnc2s1 CN=C1OC2CC23C2C(CN13)N2C C1CC23C4CC(N4)C4C5C2N5C1C43 CC1=C2OC3(OC4CC3(N)C24)C1N C=CC12NC(=O)C3(O)C(N)=NC1C32 OC1C2=NOC3CCC1(C=CN2)O3 CC1=NC2=NC(=CCN(C)N1)OC2 O=C1C2=NC=NOCCC(N2)C1O NC1CC(C2CN3OCOC3=N2)C1 CC12CC3C4=CC5(CC=CC5C41)N32 C1=C2C3C4=NOCC4C4C2N4C3C1 CN1CC2=NC=COCOC1=NN2 O=CN1CC2C3CC4=C1C2N3C4 CC1=C(O)C=CN2C=CC(C)N=C12 CC(=O)CCN=NC(N)=C(C)NO CC12C3CNCCC4C=C(OC41)C32 N=C1C2C=C3CC(CC3O)(C2)N1N O=S1(=O)C2=C3NC4C(O2)C4C2C3C21 Cc1nn2c3c1OCC=C3CC=N2 C=Cc1nc(C=C(N)C=CO)c[nH]1 C=CC1N2N=CN=C3N(C)C=CC312 OC1CC1C12CN1N=C1SNN=C12 C1C2=C3OC4C1C(O2)C4N1CCC31 COC1=NC23C4C=CC2(COC43)N1 N=c1n(N)nc2n1C1=C(CC=C1)C2 C1=CC2=NCC3(CN=C(NN1)O3)O2 C1=NSN2C=C3COCC3N=C12 CNC1=C(O)C(=CC=O)N=C(C)N1 O=C1NC(C=CNO)=C2C=NC=C12 CC1=C2CC34OC(=O)C(CC13)C4O2 CC1=C2NC3(CCC2(O)C3C)C1=O CC1=CON2OC3=NNCC3=C12 CC1N2C3COC14OCC1OC14C32 CC12OC3=C4C5OC5C1C4C2(O)C3 C=C1C2C(C=O)=CC13CNC2=N3 CC1C2C3=CC4(CC5OC4C5C3)N12 C=CCC(N=N)=C1C=CNOC1=O CC12CC3N=C4NC3C1(O)CC=C42 CCc1cc2c([nH]1)CONC2=CO CC1=NC2=NCCOC(C)CC1=C2 CC1CN2C=CC(=NOC(=O)N1)O2 C=C1CCNNC=C(C(=N)C=O)C1 O=C1C2C3C4NC5(CC5)CC14CN23 CC12CN(C1)c1[nH]n3cnnc3c12 CC12CC3C=CC4C=CC(C1)C43O2 OCC1=CC=NN2C=C(O)SC2=N1 CCN1Cc2[nH]ncc2C(=N)C=N1 c1sc2cc1C1CC(=NN1)COC2 C1=C2CC3C4NC15COC(C34)C5O2 C1=CC23OC4CC25CCC3(O1)C4N5 CC1=Cc2occ(c2O)CCON1 CC1=C2C3C4CC(C)(C1=O)C2NC43 C#Cc1cccnc2cc(o1)CN2 C=NNC=C(N=O)C(C)CC(C)=O CC1C2CC3=C4CN(C3)C1C42CO NC12C3=CC4C5C(CO3)C1C5NC42 CC1C2=CN=C1NCC1CC1C#C2 C=C1CC(=CO)c2cn(C)nc2N1 NCC12OCC34C=CC1(CC=C32)N4 C=C1CN=C2C=C(CC(=C)O1)NO2 C=C1C2OCC3=C2C2N(C3)CC12O CC1C2C3N2C2C4=NNC12CC43C CC=C1CN=NC(=CNO)N2CC12 CC1=CC(=N)C(=CO)N1CC1CO1 C1=NOCC23C=NOC4C(NN12)C43 COC=Cn1c(C=N)c(C)[nH]c1=N OC12C3=CC4C(C3)C(CC3OC31)C42 C#CC1=C(NO)C(C)(C(=O)O)N=N1 C#CC1=NNC=CN=NC2C(N)C12 CC1=C2C3=CC1C1OC(CO3)C21N C1NC2C3=NNC14C2NC1C(O3)C14 O=COCC1=C2NOC3CC23N=C1 NC12CC3C=CC4(C1)OCCC2=C34 CCC1OC1C1=CC(=N)OC1=CO C1=C2CC3=CCCC3N=C2N=NN1 CC(=N)NC(N)=NC1C(O)CC1O CC12C3=NC(=NO)C1CC2CN3 C=C1C2(N)CC3(N)C2C2=COC13O2 CC1C2C=C3CC4C(CO)=C3C2N41 OC1C=CC2N=NC3=CNNC1C32 CC1CCC(C2=CNN(C)CC2)=N1 N#CC1C2C(c3nncs3)=CNN12 OC1C2CN=C3N4NCC=C4OC312 CN1NC2CC3C1=NC1C(=O)C2C31 COC12CC3NN=C(NO1)C32C#N CC1(N=C2N3CCC3C3CN23)CC1 C=C1NC2=NCC(=NC=CO1)NC2 CC1C=C2C3NC14C2OC3(C)C4O C=NN1CC2C3C4CC2(C)N=C1C43 O=C1C2=CC3CCC14C(COC34)O2 CCC1C=CCC(NN)=CC(C)=N1 C=C1C(N=O)=CNC(=N)N1CC=O C1CC2N=C3N=NNN3C3CC1C23 C1=CC23CC1C1=C4CNC2C4OC13 CC1OC=C2C3C4C5OC2C1(O5)C34 C1=CC2=CC3(C1)CC1C=CCC21N3 C=CC1=NC=NC2=CN(O)SC2=N1 O=C1NC=NC23C=CC4N(CC2)C143 CC1=C2CN3C4C=CC5C1N5C2C43 C=C1CC2C3=NC4C(C=NN3)C1C24 C1=C2COC3=CCC(C3)N=C(C1)N2 COC12C3N=C(N)C(OS1(=O)=O)C32 OC12C=CC3(O)C(C4CCC=C41)C23 CC1CNN=C2C(O)=CN(O)N=C21 CC12C3OC4C1C4(C)C1N=C3NC12 ON=CC12C3=NCC4(CC1NC42)N3 CC12NC3=NN=CCCOC1C2N3 CC12C3C1C1(C=O)CN3C3CN1C32 CN1C=C(Cl)C2=NN=COC2=C1N CC(=O)OC1=NNC=CN=NC1C CC1C2=NCC3(CC(CO3)N2)C1N C1=C2OC3(OC1)C1OC4C(NC21)C43 C=C1CN=C2C(=C(O)SN2N)O1 CC1NC2C3C4=CC(=O)C2(O4)OC13 C#CC1=C(C=N)OC(=C)C(=N)NN1 CN1NC2=NC(=N)C13C=CC(C3)O2 CC1CC2C=CC3C=CCC4N1C324 CC1=C2OCC3C4=CC(CO4)(C1)C23 C#CCC1=CNC=C(N=N)C(=O)N1 NN=CC12CC3OC14C=C(O2)C3C4 OC1C2ON=CCC3NN=C(O2)C31 OCC1=CC2=NNN(O)C2=NCC1 CC12CC3(N)CC=CC(=C3O1)O2 CC1N2n3cccc3C3NN=CC312 Nc1cc(NO)nc2c1=CC(N)C=2 C1=CNN=C(CC2=CCC=C2)N=C1 C=C1OC23C=CC4(C2)NN=C3C14C CC1(C)CC(=C2NC=NN2)C(=O)O1 CCC1C2=C3C(C)=CC4C3C1N4C2 CC1=C(C=N)OCCC(=O)CON1 NC1C2CC3C=C2C2C3(N)CC12O C=C1OC2=CON=NC2=NN2CC12 C1CC2CC2ONC2=NN=C1ON2 NC1=NC2=NCCC(N)C2=C(O)O1 C1#CC2C3CCC4C(C1)CN4CC23 Nc1sc2c3c1CCC=C3OC=N2 C1OCC23COCC4(COC2=C14)O3 C=CC12CC3OC4=CC3C1ON=C42 NC1CC2CC13C1CN1C(=O)N3N2 N=c1ncc2c3n1NCC=C3CN2 CCC(=CNN)C(=N)C(=O)NOC CC1=C(C=N)NC(=O)C(C#N)ON1 CNC1=C(O)NC2=NOCCCN21 CC1=CC23CC(CO2)N=C(O3)N1N CC1=CC2=C3C4CCC2N4CC13C O=C1C2CC3(CC4CN4N13)C1NC21 CC1OC2=C3C=CC24C=CC31CO4 C1=C2C3CC4C1C(OC21CC1)C4O3 C#CCC12OC3CC14CC3C2=NN4 NC1=NN=C(N)C2(O)CC(=O)C=C12 OC1(C2C#CCC=CNC=N2)CC1 CCC(C)C(O)=C1C=C(O)C(=O)N1 C=CC1=C(Cl)C2=NN=CCN2S1 NC1C=CC23NC2C2C4OCC13C42 CC1=CC(C)N=NC2=C(C)NNC12 NCC1=CC=C(O)N2CCN=C12 C1=CC23C4OCCN=C4NN2C3C1 CC1=NN(C)c2c(c[nH]c2N=O)O1 CC12C=CC3(CC=C4C1COC43)O2 C=c1c(NN)cc2cn(C)c(=N)n12 C=C1C2C3C(=O)C14C(CC1NC14)C23 OC1=CN2C=CCCCNN=C2N1 CC1OC2CC34C=CC(C=C3)C14C2 C1=C2C3CCC4(N3)C2OC2C1NC24 N#CCC(=N)C(C=O)=C1C=CNN1 C=C(C)N1SC2=NN=CCC2=C1O N=c1c2c(sn1C=O)CC(O)=C2O O=C1C2C=C3CN4C5CC(C24)C13C5 CC12NC1C13CC(CN1)CC31NC21 C=C1COC2=C3OC(C2)OC13CO CC12C3N1C1C(O)C2(N)C1C31CC1 C#CC(=C)C(NO)=C(C#C)C=NC CC1N(C)C2=NOC13CC(CO3)O2 O=CC1=C2NN=CC2(CO)CN=N1 CCC1=C(c2ccsc2)C(C)ON1 CCCC12C(N3CC1(O)C3)C2(C)N CC(C)c1cc2c[nH]oc-2c1N=N CC1CC2(C)N=CN=C3NC1C=C32 OC1CCN=CN=C2N=CN3C2C13 O=C1C2CC1NC=C1CONC1=N2 CN1Cc2c1cn1c2N=COC=C1 C=C1C2OC3C1C1=CC4C2C3N4C1 C=CC1C2=CC34CCN(C(C2)C3)C14 NC12CC3C4N3C1C1OCCC42O1 CN1NC2=C(N)C1=NOCOC=C2 NC1C2C=C3OC4C=C3C2C41CO CC12CNC3C4C=CC31C(=CO2)C4 C=CC12CC34OC(=CC3N1)C2C4=C C=COC1=C2C3C4N3CC2C4(O)C1 C#CC1C=C2C3=CC4C2N1C4C3N CC12NC3=NC4C(N)CC(C1O3)C42 CC12C=CC(=N1)NC=CCN1CC12 C1=NCC=C2N1N=C1C3CC3NN21 OC1COc2c1[nH]c1c2CCN=N1 C1COCC2CC3CC(C1)N=C3N2 N=C1N=C2CC(CN2O)OCCO1 O=CN1NC2C3CC4C(C1=N3)C42O C1=C2OCC13C1NC(C21)C31CCO1 N#Cc1c(N)oc2[nH]cc(C=N)c12 COC=Cc1n[nH]c2c1C(=N)OC2 C1=C2CC3NC24COC2C3C(O1)C24 CCCCC(O)=C1C=C(N)C(=O)N1 c1c2n[nH]c1N1CC(C1)C1CN2C1 C#CC1=CC2C3C4=NOC13C1C4N21 CN=CC1=C(C(C)=CN)NN=CN1 C1#CCC2C=NNC=C(C2)N=NC1 CC1=C2C=CC3C4=CC(C1CO4)C23 CC(C=N)=C1NN(C=N)C2CC1C2 O=c1[nH]nc2c3c1CN=C3C=CN2 OC1CC23C=C4OCC1(O2)C4=CC3 C=C1OC2=C3C(C)C(C)(C2)OC13C NC1CN=Cc2sccc2NNC1 CC12CC3=NNC(CN)(C1)C3=C2N CC1=CC(=O)C(=C2N=C(C)NN2)O1 C=C1OC2=CC3CC14N=CNC3=C24 C#CC(=CNN(C)C)C(C)=NC C1=NC2=NCC1=CNNC1CC2C1 OC12CC1C13C=CC2=CC(CC1)O3 CN1CCNCC2=CN(OC2)C1=S C1OC2=C3C1C1CC1C3C1CCC21 CC1CN2NCC#CCC=C1C2=O CC1OC2=C3CC1C1NC(CO3)C21 NC12CC3NCCC4=CC1NC43C2 C=C1CCCN2C=NC(=NC1=O)S2 C1=CC=NN2C=NSC2=NCC=C1 CNC1C(C)=C2C3C(=O)C4C2N4C13 C1N=C2OC3CC3C3CNN=C1N23 CN=c1n2c(cc(=N)n1C)C(N)C2 CC12CC1C1=COC=COC=C2O1 C=COC(=N)C=CNOC(=O)C=C ON=C1C2=C3C(O)C1C1CC(C2)C31 C1ON=C2N=C3CNCC3=C2O1 NN=C1CC2C3C4C5CC(N24)C13O5 C1=C2OCC34CC1C1NC23CNC14 CC1CN(N)C(C2=C(N)CCC2)=N1 CC1C2=NCC3(COC1S3(=O)=O)N2 C=C1C2CC3=NNC14C=COC2=C34 CCC1C2(N)CC3N=C4NC31CC42 O=C1CC2C13COC=C3OS2(=O)=O C1=Cc2cc[nH]c2C2=C(C1)NOC2 NC1C#CC2=CC=NC(=NNC1)O2 C=CC1CCC2=C(N1)C(=CO)N=C2 CC1=NNC23CCC4NC1(C=C42)C3 CNC1=CC(=CO)N=C1CC=O C=CC=NOc1n[nH]c2c1C=NC2 CC=CC1=C2CC3OC4C1C=C2C34 O=C1CC2C3=C(C=NC=NN3)CC12 C=CC1(c2nsn3ncnc23)CO1 O=CN1C2C#CCC3CC(CC21)N3 CCN1C=C2OS(=O)(=O)C(C)=C2N1 CNC1C2=C3C(C)=CC4C3C1N4C2 C1=C2CC3=CCN(CC1)CCC3O2 CNCC1=CNC(=CC=CO)C1=O C=CC12C3=C4CC(C3)C1(C)OC2C4 O=C1C=NN(C2(CO)CC2)C1=CO CC1=NC2C3C4(O)CC(N)(C4)C23N1 CC1c2[nH]c(c(O)c2O)C1(C)C C#CC12CC(=CO1)CCCC=CO2 O=C1C2NN=C3C2C1S(=O)(=O)N3O C1CC23CCC1ONC(=NO2)NO3 CCC1=NC2=C(C1=O)C(=CO)N=C2 O=C1NC2=C3C(O)C1C1CC(O2)C31 C=NN1NC=C2CCN=C2C1=NC NNC(CO)=C1CCc2n[nH]cc21 CCC1CN=C2C(=N1)N=CON2O C#CC1CC23OC4C5C(OC52)C3C14 C=C1N=C2CC1C#CC(=O)NC=N2 Cn1c2cnc1CCC(O)=CC=C2 O=C1C2=CC3CC1C1NCC2=CC31 C1#CCC2=CNC=CC(=N2)NCC1 C=C1C2NC3=NNC1(C)C3=C2CO CC1C23COC4C2=CCN(C3)C41C CCN1CC2CC2N=NC=C(C)N1 C1=NN2N=C3CCOC3CN=C2O1 CC1NC2c3n[nH]cc3C(=CN)C12 C1c2sc3[nH]nnc3c2OC2CC12 C=C1C2=C3C(C)C4OC(C1C3O)C24 CC1(O)C2=C3CCN4C3C(C2)C41 O=C(CC1=NOC=NC=C1)NO CC1C23C=NNC14CN(C2)C1C3C14 C1=NN2CC23CN(CC2CC2)C=C13 C1=C2C3CC3C13C1CC4C(N1)C2N43 C=CC12CC3CC4=C(C(N)C1O4)C32 COC1=C2CCCN=C2N(O)N1N C=C1CN=C2C=NN(O)N2C=CO1 NCCC(=O)c1ccc2[nH][nH]cc1-2 c1nn2cc1CNc1cnc(s1)O2 CC1=NON2C1=NCC1(CC1)N2C ON1C2=NOC3(C=CC4CC3C41)C2 CC1C2C3N2C2C4=CC3(NC4)C12C OC1C2OCONC3=NC(CN3)C12 C=C1C=CC(=CN=O)NOC(=O)C1 C#CC(C=N)=C1CC(C)C(=N)NN1 C=C1CC(C=N)=C2NN=CC2C1=O C1C2C3CN2CC2C(CN12)C31CC1 C=NN=C1C=CC(=CO)C(N)=C1C CN(C)NC(=CO)c1cc(Cl)co1 OC1CCOC2=COC3=CC1NC32 C=c1c(C=O)c(N)[nH]c1=CC=N NN1C2=CSC1=NN=CC#CC2O NC12C3=CC4(O)CC1(CO3)NCC42 O=C1N=C2CCN=C3COCC1N32 C1=CC2=CCN=C3N=CN(C=C1)N23 CC1=CNC2=CC(N)C(=O)N2C1=O CC12NC3CC(=C1C3)C1CC2O1 CC1=C2C3CC4=CC2(CC1O3)NC4 O=C1C2=NC34CCN(CC13)C4CN2 C=CC(O)=C1C=C(CO)N=NC1=O C=C1CCC(NO)=C(C=NC)C1O CC1CC(C)N=C2N=CN(C=N1)N2 NC1C2CC3=CC2C2OC=C3C12O C1=CC23CCC1CC21OC2C(O1)C23 CC1=C2C3=CC4(O)C2OC1(C)C4C3 CC1CN2C1=NC1=NCCC=CN12 NCC1=C(O)OC2=NCCCN21 CC1C2=C3CC4C(CN1C4CO3)O2 NCCOn1[nH]c(=S)n2cccc12 N#CCON1C=CC(=N)C1=CO COC1=CC(=O)C(=CN=N)NN=C1 NC12C3OC4OC5C(C41)C2N1C5C31 CC12C3OC4=CC(C3C#N)N1C42 CC12CCC3=C4C5NC(C41)C5C32O NN1C2=NNC3C2OCOC2C3C21 NC1C2CC3CC2N=C2NOC31O2 CC=CC1(C)CC(=CN=NC)NO1 O=NC1=CNC=CC(C(=O)O)=C1 Cc1sccc1C(O)=C1CC=NN1 C=CCN1C=C(CO)C(=N)C1=CO CCC(=C(O)C1CC1)c1cn[nH]c1 O=C1CC2=C3OC4C5COC13C5C24 CC1N2C3CC14C1CNC4(CO1)C32 C=C1CCC2=C(C1)N=NCC=NN2 O=C1C2OCC3=C2C2N(C3)CC12O C=C1C2OCC13C1CC=C2C3OC1 C=C1CN=CN=Nc2[nH]c1cc2N C1=C2C(=NCCC23CCO3)N=NN1 O=C1C2=COC3OC4(CNC3C14)C2 C=CC(=C(O)CO)c1cccs1 CC12C3CS(=O)(=O)C1C1=CC3C2O1 C1=C2OC34CCC(CC3N3CC23)C14 CC1C2CC3=C4C(=O)C(C)(C3)C1C42 CC(CC=NN)C1=C(NN)CN=C1 C1=CC23CC4(C1)C1CC2C1C1C3N14 O=C1C2CC3C#CCCNC2C1C3 CC12C3CC1C1OC4=NOC1(O3)C42 N#CC1=C2C=NC(CCC=NN1)C2 O=Cn1ncc(O)c1C1=CNNC1 C1#CC23C=CC(C2)C(=NC3)NNC1 CC(=Cc1ccoc(=O)c1N)NO CCC(=C(O)C=O)c1cnn(C)c1 CC1C=C2C3OC4OC13C(O)C24O C1=NOC2=NNC13CC1C=C2C3O1 CC12C3NCC4C(=NOC41)N(O)C32 CCC1=CC=NC(=CNO)C1=NC NC1C2=CC3CC(CNC1C=C2)O3 O=C1C2C=C3CC4C1N2C3C41CN1 N=c1on(C=O)c2c3c(cn12)OC3 CN1CCC2NCC23N=NC=C3N1 C=C1C2=C3CC4C(C2CO)C1N4C3 C#CC1=C(NN)C(CC)(CC)N=N1 CNNc1c(C)c(C)n(O)c1N=O C=C1C(=N)NC=C(N=O)C=C1C=O COC1=C(C)NNc2c(O)coc21 CC12OCCOCOC3=CC1OC32 N=C1C(C=O)=CC=C2NNC(=O)C12 CC12C3=C4CC(C3N)C1CC2(O)C4 C#CC12C(C)C3=CC4C5C3C1N2C45 C1=NC23C(=CN1)C1CC2N2CC3C12 CC=CC1=C(O)N2C(=NC3CC32)N1 N#CC#CC1C2C3=CNSC3=NN12 C=CC1=Nc2cc(N=O)[nH]c2C1=C CC1OCCC(O)=Cc2csc1c2 CC1=C2C3=CC4C(O3)C1N4CC2N CCC1C2CC34CC3(CCN4)C12C C1=C2OC3C4CC2C2NC13CCC42 O=C1NC2=C3C4OC2C4(O)CC13O C1OC2=NCC3C4CCC3(CC14)N2 CC1=C2NC(=N)N=C2C2CC2N=N1 CC1N=C2C=CC34CCC(C3)C1N24 C#CC1=NON2OC(=C)C(C)N=C12 C#CC(=CNO)C(=N)C(=O)NOC CC12CC3(C)C(O1)C(=CN3C=O)O2 C1=CC2=CC1=COC1=CCC(=C1)O2 CC1N=NC(=C2CCNN2)C2CC12 CC1C2NC23CC2NC2C32C1N2C CC12CC1C1N(C=NCC13CC3)O2 CC1OC2C3=NNC24COC31C4O OCC1N2C3C4=CC2(CC4)CC13O CC1=C2C(=N)OCON=C2C(=N)N1 Cc1c2c(N)c[nH]nc-2oc1=O OC1CC2=C3C(=NOC2)CCCC31 CN=C1OC=C(N)C2=NCCON12 N=CN1C2=CC34C=CC(O)(C2C3)C14 O=C1CCN2CC=CN=CN=C1N2 C=C1C2OC3OCC2N2CC3=CC12 CC12CC(N)C3(C1)NC(=NC3=N)O2 CN1C2=NC3C(CCCCC=C2)C31 C=C1N(N)C2=NC3C4CC1(C2)NC43 OC12C=CC(=C1)CC1CN(CC2)C1 CC#CC12CC1N1NN=C(C)C1=N2 CC12CC3C=NN4C(=O)CC34C1O2 N#CC12CN1C1C3=CC4C(O3)C2C41 O=C1C23C=NNC14CCC(=C2)C4N3 CC1N2CC3C2C=C2NC(=O)C31O2 C#CC1=NCC2=C1C1C(N)C1ON2 CC12CCC3(C1)C(=O)N=C(O2)N3N CN1CC2=C3CC4C(C3=O)C1C24C CC12OC3CC14OC(C1CC4C1)C32 OC1C2=CSC(=NOC3CC1C3)N2 COC1=CC2C3NC4=NC3C2C1N4 CCCC(C=N)=C1C=C(C)C(=N)N1 O=Cc1[nH]sc2nn3ccnc3c12 CC(C=O)C1=CC(=N)C(=CO)O1 CC1CC2=CN(O)NC(=O)C2=NN1 N=C1ONC(=S)NN1C1=CCC=C1 CC1CNC=C2CN(C=N1)NC2=N O=C1N=C2N=C1CN1CC1C=NO2 OC1=C2CC#CC=NN=C1C=NN2 CC1=NOCC(=CNN)C(C)=NC1 C=C1CNC2=CON=NC2=NC1C CC(C=CO)=C1C=CC=CC1=O C=C(N)c1[nH]c(C#N)c2c1NOC2 Clc1c(N2CC2)nnc2csnc12 c1ncc2ncc3n2c1NCCN3 N=CN=NC=Cc1cccnc1N CC12C3=NCC1OC2(CO)CN3N NCC1C=CC2=C(NCC2=NO)N1 CNN1ON=C2C1=NC1(CO)CC21 C=C1C(=O)NC=C1C=NCC(C)N NC12C3(CN3)C3CC1(O)C2(O)CN3 N=C1CC(=N)NC2=NC=C(CN1)C2 CC1=COCCN=C2NC(O)=C1O2 O=C1OCCN=C2C=NC(O)=CN12 CN1C=C2C3=NC4CC4N3CC2C1 O=C1C2C#Cc3nnc(o3)CC1N2 CC12CC3C4C(O1)C1=CC(C4O1)C32 CC1C2=CC3OCC(CC2)(O3)C1O C1=CC23CC4CN2C2C=C1CC3C42 CC1=C(O)CC(C)c2c1ncn2C C#CC(=CN=O)c1c[nH]nc1C#N NC1=NC23C(C=C1)C(=O)OC2C3O C1=CC2CC3C4C5CCC2(C5O1)C34 CCC1(O)Cc2n[nH]cc2C1=N C=C1OC23CC1C1=C2OC(C)(C3)O1 OC1C2CC3CC14ON=C2C1C4N31 CC1C2CON3C=NC4(CC4N)C123 C1=Nc2noc3c2C(=CCC3)N1 C=C(C1=COC2(CC2O)O1)C1CN1 CC1C2CN3CCC4(OC=CC134)O2 NN=C1C23C=CC4C2=COC14CN3 N#Cc1cc(C=CNO)sc1N=O CN1CC2C3=NNC24C=CC31C=C4 CC12C3OC4(OC31)C1CCN(C1)C42 OC12CC34CC5CC3C1CCC52O4 CC1CC2C(O)C3(CC4C(C3)N42)O1 CC12C3N(CCC31O)CC(=N)N2O CC(C)(N)C1CN2C=C(O)NC2=N1 CC1CONC=C(OCCO)C=N1 C=Cc1oc(C)c(C(O)=CO)c1O C#CCC(NN)=C(CCO)N=NC CNC=C1CN2N=CC(=O)C2=C1O CNCC1=C(O)C=NC(=O)C1=CO C1=NNC23CC14CCC2CCC3N4 CN1C2C3=NOC4OC2CC41C=C3 CNC12C3C4(C)CC1(O)C4CC32N NC12CC#CC3=COC(=CC1C2)C3 CC12COC3C4CCC31N(O)C4=N2 CC1C#CC2CN2NC=CN=NC1 CC1C2=CCC3(O)C4ON=C1C4C23 C=NNC1=CN=NC=NC2C(C)C12 C=C1C2CCN=C3NC4C1C4C2O3 CC1ON=C(c2ccc(N=O)[nH]2)O1 C=C1OC2C3CC4N5CCC14C2C35 CC1=C2C3=CC4C2N(C1)C4C(C)O3 CC1C2CN=C(N=C3C=CC=N3)N12 CC12NC34C(=O)NN=C3C1C2C4=O CC12C=CC=CC3ON=C(O3)C1O2 COC1=C2NNC3CC(O)C23N=C1 NCC1=Cc2cnc([nH]2)CCON1 CCC1N2C3C4=CC1(N)C(CC4)C32 CN1CC2=C(N3CC3)NOC2=N1 CC1CC2NC13CC1(C)CC3=C2O1 CC12CC3(C=O)C=C1C(=CO2)OC3 C1#CCC2=CC3C=CC2C3=NN=C1 CC1=C2CCC3OC4OCC3(O2)C14 C1CC2NC3=NNC4C(N1)C2C4O3 CC1=C2C=NC(C2)C(N)=CC=NN1 CC1C=CC2=C3C1=NNC3CCN2 COC(=N)C(C)=C(CC(N)=O)NO CN1C23C(=O)CC(=O)C12C1CC3O1 CN=c1c(CO)c[nH]c(N)c1C=N N=C1CC2(ON1)OC1COC2OC1 CCC1C2N=C3N(NCC34CO4)C12 CC#CCC(O)=C(C)c1cnc[nH]1 CC12C=C3C4CC4N1C1(C)C(C2)C31 CNc1[nH][nH]c2nc(O)c(OC)c1-2 OCC12CC3=CN=CON=C3C1N2 CC(N)C1=C2NOC(C)C2(C)N=N1 CC1=C2CC3(C)C1C1C=C2C2C3N12 C=CCNCC1=C(NN=C)CN=N1 C=CC1(O)Cc2n[nH]cc2C=C1N C1=C2OCC3(CO1)NC1C=C2C3C1 C=C1C2C3C(C)CC14C3NC1C2C14 N#CC12CNC3C(N1)C1=NOC32O1 CN=C1C=C(C=CNC=N)NNC1 CC12OC3=C4C5CCN(C4C1C3)C52 C=C1C2(C)CCC3(CCC4NC143)C2 Cc1on2c(=N)c1NCC#CC=N2 Nc1cc(N=O)c2c(=O)[nH][nH]cc1-2 NCC1CC(c2[nH]ncc2N=O)O1 C1OC2C3CC4(CNC(=N3)N4)C12 CC(O)=C1NC(=O)C2=C1N=CNO2 CCN1CC(=NC)C(C)=C(CN)N1 CCC1C(O)=C(O)c2cn(C)cc21 C1=CC2N=C3CC4CN4N3C2=C1 CC1CC23CC4(C)C(=NN2)C3NC14 N#CC1=CNC2=C(COC2)N1C=N CC=C1C2CC3CC2N2CC3=CC12 C=CCN1Cc2c[nH]nc2C=CN1 C=Nn1c2c(cnc1=O)NOC=C2 C=CN1C=C(C)C(=O)C1=CO Oc1c(C2CC2)cc2c(Cl)c1OC2 C1=C2OC34OCCC3C1N1CC2C14 C1=C2CC3CC14OC1OC4C3CC21 C=CS(=O)(=O)C(N=O)=C1CCNN1 C=CC=c1[nH]c(=O)[nH]c1=C(C)N=O CC12CN3CC(=C1C3)CCS2(=O)=O OC1C2CC3=CN=C(NCCN2)C31 CCC1=C(Cl)C2=NCCN(C)N2S1 C=C1C=CC2=C3CC(C2)C(O)C13C CN1C2C=C3OC2C2(O)C=C3CC12 C1=C2OC3(CO1)CC1NCCC21O3 N=C1NC2CN3C4C5NCC2(C15)C43 COC1CC2(N)C3OC4=C1C2C3C4 NC12CC1C=NN=CC1=NOC2C1 O=CCc1c[nH]cc1C(O)=CNO Cc1cc2[nH]c1N=NCC(N)C#C2 OC1C2OC3=NNC4=NN=CC43C12 COC1(C)ON=C2ON(C)C(O)=C21 C1=CC23CCC4(CNC(=N4)O2)C3O1 CC12CC=C3CC4CC1(C3)OC4O2 CCN=Cc1oc(N)c2c1NNC2 NC(=O)C12CC3C4=C1C1CC4C1C32 OC12C3=C4CC1C(O4)C1CC(C3)C12 Cc1[nH]nc(C2CO2)c1C=N C1=NOC2CC34CC(CN3)C1(C4)O2 CC12CC34C=C(OC3O1)C2(CO)C4 OC1C2OC3=CCC14C3NC1C2C14 CC12OCC3C(C=O)(N=C1N)C32O CC12CCC3=C1C1=COCC1(O3)O2 C1=C2CC3C4NCCC1CN(C2)C34 CCC(N)C(O)C(C=CNO)=NC C1=C2CN3C1C1C2NC(C2CN2)C13 OC12c3n[nH]nc3OC13C=COC32 C=CC=CCONC(C)=CC=NC NN=CC1=NC2CC(C3CC23)N1N C#CC1N2CC3=NOC1(CC2C)O3 NC(=O)C1=CC2=NCCN2C=C1Cl O=C1C2C3C4C=CC5CNC14C5N23 C#CC1COCON2N=CSC2=N1 C=C1C2=C3CC(O2)C2C3C1S2(=O)=O O=C1NOC2=NN3C(=NC4CC43)C12 C=C1OCCC2COC(=CC1=O)N2 N#Cc1ncc(C(O)=CO)n1C=O C=CC1(CN=Nc2c[nH]cn2)CN1 CC12CCC3C4CC3C1=C4C=NO2 COC1Cc2oncc2C=C1NN CCC1=NOC(NOC)=NC(N)=C1 CNC12CC34CC1=CC3(N)CC2O4 CC1=C(O)c2[nH]c(C)cc2CON1 NC12C3C4CNC(=O)C1N1C4C1C32 CC12C=C3OC4CC1C4(CN)C3=C2 Oc1sc2c3c1CCC=C3OC=N2 C#CC1=CNN=CC(CO)N=N1 NC1C2CC3=C4CCC2C1N(C4)C3 Nc1c2noc1N1CC(C1)OC=C2 NC12C3CNC45C=NNC41C2CC35 CC1CN2CC3C=C4N=CNC13C42 OC=C1NCc2[nH]ncc21 CNC=C1N=C(C)c2c1c[nH]c2C CN1CCC2=C1NN=CN(O)C2=O CS(=O)(=O)OC=CC(=N)C=CNO C=C(C=O)C1=CN(C)NC(=O)N=C1 CC12C=C3C=CC4C(OCC41O3)O2 C#CC(NN1CC1)=C(C=N)CC=O OC12CC3C4C1=CC1CC2(CN1)N34 O=c1cc([N+](=O)[O-])cc(NO)[nH]1 C=C1NS(=O)(=O)NC=C1N=O C1=CC23C=C4C5CC2C(C1)(C5)C4N3 CC1(O)C2=CC3NC4C2C2C1N2C34 CCC12CC3NN=C(NN1C=N)C32 CC(=O)c1cc(=N)c2c[nH]sc-2n1 CC12NCC3C4=NC1C2C3(O)CN4 C#CC1Nc2[nH]ccc(=N)c21 C=Cc1cc2c([nH]1)C(O)=CCNN2 C=NNC1=CN=NCC1CNCC COCCC1=CNN(C)C1=CC=O C=NNC1=C2CC(N)CC2=NCC1 C1=NN=C2NC=C(O2)C2=CCN1C2 C#CCC1C=C(N)c2cn[nH]c21 C#CC1CC(N=O)=CNNC1C=O OC12C3C4CC1N4c1nncn1C32 C=CC1CC23CC4C(=CC2C14N)O3 CC1=NC2CC2C2=CON(N)C2=N1 C=C1C2C3OCC24NC3C2C4C12C OCC12C3=CC4CC1NCC42NC3 OC1=COC2=NC1=NOCCOC2 N=C1NCC2(N)C3=C1OC1C3NC12 C=C(O)c1occc1NN=COC C=C1OCc2nc3c(n21)=CCNN=3 O=CN1C2=CC3(O)C=C2C2C1CC23 C1=C2CON=C2ON1NC1CC1 CC1=NC(=O)C2=CC3C(C2=N1)N3C C1=CC23C=C4CC1(CO4)C2=CCO3 C=CC(N)C(N)c1n[nH]c2c1NC2 NC12C3=CC(O)C(CC1O)(O3)C2O C1CN2OC3=NOCOC3=C2CN1 CC1CC(C(=N)NCCO)=CNN1 CC1OC(=C(O)C#N)c2c[nH]nc21 CC=CN1C=CC(N=O)=CNC1=S C#CC1(N)C(NO)=CC2=NCCC21 NC1CN=C2N=NOC3=C2C1CC3 CC1=CCC(=C2C3CC4C(N3)C24)C1 C1=CC23CC4CC(C(=N1)NN2)C3O4 CC12CCC=C3NC=NC(=NO1)C32 NC12CCN=CNN=C3CC1C2O3 C=C1COCC(O)=Cc2csc1c2 O=C1C2CCC=C3OC2OC2C1C32 CN1C2C=C3CN=CNC=CC2C31 CC1=C(C=N)C2(COCC2=O)NN1 C1=CN2C=NCC3=CNC(=NC1)N32 CN1C2CC3=NOCC#CCC2C31 c1onc2c1C1C2N=C2OCCN21 CC1CC12CN=C1N(O)OC(=O)N12 CN1NC2=CC(=CO)C(=O)N2C1=S O=C1OCCC2N=NC=C2NO1 C=C1C2C3NC14CC3=C(C)C4C2C C1=C2CC3C4CCC5CC13C(C2)N54 C1=C2COC13C1=C2CNC2C1NC23 CC12N=C3NOC4CC1NCC42O3 CC12CC3C4=CC5C1COC5(C4)C32 C=C(CO)Oc1n[nH]cc1C(=C)O NC1C2C=CC(=O)N3N4CC4CC123 CC12CNC3C#CCNC1C2CC3 CC1OC23OC4C(C5OC52)C3C14O C=C1C=CC2=CC(=NN(C)C1)C=N2 CC1(C=O)NC(N)=C2C(N)=NCC21 C1#CC2C3CC4C(C=CC1)C4N23 CC1=C(CN)NNC(C(=O)O)C1=N C=CC(N)=C(N)c1occc1NO COC1C2C3=CC4C(C)C2CC41O3 CNC1C2=CCCC23C(C1O)N3C C1=NCC2C3CC4(CC3C2O4)ON1 C1=C2CC34CC(OCO3)C(C1)(C4)O2 CC1C2C(O)=Cc3cc(N)nn3C12 CC1C2=CC34CN1C(CO3)C4CO2 CN1CC2(C1)C(=N)C=CNNC2=O N#CC=C1N=C2C=CN=NOC2=N1 N=CC1=C2CC=CC2=CNOC1=O NC=CC(C=CN)=NNCCC=O C1ON=C2NOC3OC12CC31CC1 CC=NN1C(=O)SC2=NC(C)CN21 C#CC1CONC=CC(=NC)C1=O CC1C=CC23CC4(C=C12)OC=C3O4 N=C1C=CNOC12OC=CS2(=O)=O C=CC1C2=NCC3(CC1NC3=N)N2 CC(C=CC1=NC(=N)C(C)=N1)=NN OC1C2C3C4=C(CCC4)C4C3C4C12 CC(O)=C(C)C=Cc1conc1N CN1SC(O)=C2CCOC=NN=C21 C1=NCC=C2CON=C3NC=C1N23 C#CC12CC3=C(C1=C)C(C)(CO3)N2 CC(=C(C)N(N)C(=S)NN)C(C)O CC12CC(C1)c1nnc(o1)C=NO2 CCN1SC(=O)C2=NC(CO)CN21 OC1=CSN2CC3CCC(C3)N=C12 CC(=Nc1cnsc1)C1=CNNC1 CC12CC3C=CCCC1OCC2=C3 CN(C)C1=CN=C(OC=O)C1=CO CC1CCOC2=CON=NC2=NN1 CC(COC12CC(N)(CO1)C2)=NO C=C1CNN2OC3=NOCC3=C12 CC1ON2CCOC=CC=C1C2=O C=Cc1nn[nH]c2cc(=O)n(O)c1-2 CC1C2NC1(C)C1=CC23C=CC1N3 CC1=C(c2nnco2)CC(C)ON1 COC12C3=NNC4(CNC1C42N)C3 C=C1C2OC34OC2C(=CC13)NC4=N CC1ON=CC=NN2CC1=CC2=O C=CC1=C2N=NC(C(=O)O)C2ON1 NC1C2(O)CC=NN3CC4NC4C132 C1=C(CC23CN(CCO2)C3)COC1 CC1=C(N)C2CC3(C)ON=C1C23O CC12CN(C1)c1c(n(N)sc1=O)N2 CCC12CC1NN1NC(C)=NC1=N2 CC12C3N=C(N)C1C2NC=CC3=O CC1OC2=NOCC3C=CC=C1N23 C#CC1=NNC2=CN=NCC(C)C21 S=C1NOC2C=C3C=CC(N1)C3O2 CC(=N)C1=CNC(C)=C(C=O)O1 CC1=NN=C2NC=C(COC=C1)S2 CC1(C2CO2)CCN2N=NOC2=N1 CC1=NNN2C=CCC3CN3N=C12 C=C1N=CNNC=C1N=NC(C)C CCN1OC2CC3NN=C1C32C=O CC12C(=O)C3CC4=C1OCC2C3C4 C=C1C23C(O)CCC2N3NS1(=O)=O CC1=COC2C3CC14C2C1CC4N31 CC=CC1CC(=N)C=CNNC=N1 CC1OC23OC4=CC2OC1C3CC4 C=CC(=O)C1=C2NC=CN=C2NC1 C1=C2CC3(C1)CN=C1NCC2(C3)N1 NC12CC3CC14CC1C2NCC31C4 CNC1=C(N)N(C=N)C(=O)C1=CO CNC1=CC(OC)c2c(O)c[nH]c21 ON1CCNNC=Cc2csnc21 NC1=CNN(C=O)Cc2sncc21 CC1=C(C)NOCOC(C)CN=C1 CC1=C(N=O)CC(C)(C=O)ON1 CC(=Cc1ccc(=N)nnc1)CN N=C1NC2=CC3=NNC4C3C2C14N CN1CC2C3C4=CCC(C=N1)(C4)N23 CC1C#CCCN2CCC(=N2)C1N C1=NOc2coc3c2NCC3NN1 N=C1NC2=NC3C4CCCC2N1C43 CC1=C2NOCC(N)=C2CN=C1 CC12CC1NCC1=CCC(=NO2)C1 CN1NC(=C(C#N)CO)C=NC1=N NC1C2C#CC3CC(CC1NC2)O3 C1#CCC2Cc3nnc(n32)OC=C1 CC1=CC2=C3CC4C2C1(C)C1C3N41 C=CC12COC3C4=NC1C(N4)C32C CC12CC3NC4C3C3=CC1C(C3)C42 CCNC1=C(N)C(=CNO)C(=O)O1 CNC1=C(O)Cc2[nH]nc(C)c21 CC12OC(=O)C(O)C3N=C(N)C1C32 O=c1s[nH]c2c1C=C1CCC2N1 CC12OCC3C1N1CC4N3C4(C)C12 C=CC(=CC(C)=NC(C)C)NO CC(C)C1CN=CC2=C(C1)NOC2 COC1=CN=NN2C1=NCC2CO C1=C2C3OCC24CCCC1(C4)O3 CNC1(C)C(C)C2(OC=NO2)C1C CC12NC13CC1OCC3(O1)C1CC12 C=C1NC2=NC13CC1(O)C(=O)C3C21 NC1=NN2CC3OCC3CN=C2S1 N#CC(=O)C12CC1(O)CCC(N)=N2 CC1=C2CC3C(N)C4C1C=C2C34N CC1=CC(=CO)N=C1CC(=O)O COC1Cc2[nH]nc(CN)c(=N)c21 CC1=C2C3NCC24NCC3(C1)C4O CN1OC2=NNC=NC2=C1CCO O=C1C2OC34C=CC5OC3C2OC154 NC1C2=C3CC1C1CC(CC2O)C31 CC#CCNNC1=CC(=NC)C=C1 C=C1OC2=CC1N1CC(COC2)C1 C=COC1=CNNCC(=NO)N=C1 C=CC(=CC=NCC(C)(C)O)NN CC=C1C2C3C4=CCC(N23)C14CO NCc1c(O)c2c[nH]sc-2nc1=O CC12CNC3C#CCOC1CN2C3 CC1=NCC2CC3(ON12)C(O)C3O COCC1C(C)=C2C3NC4C2C4C13 CC12CC3(ON=C1O3)c1cc[nH]c12 OC12C=C3OC(C1)(OC2)C1CC3N1 C=CCNc1nc(C(=N)C=O)c[nH]1 CC1=C(C=CNN)Cc2[nH]cnc21 C1=NOCCNCC2=NC(=C1)N=C2 C1CC2=NN=C(NN2)OC2CC2O1 NN=C1C2=C3CCCC2(O)CC1C3 C=C1CNc2cncc3noc1c23 OC1(C23CC4C(O2)C4O3)C=NN=C1 CC1(c2cc(=N)n3n2C=CC3)CO1 C1OC23CN=C(C2)NC2CNC1C23 CC1CC2C3N=C4CC1C2(O)C3N4 CCOCC(=N)NN=C(N)OCC C=C(NC(C)C=CC)c1cn[nH]c1 OC12CN3CCOC4(CC1=NO4)C32 CC(O)(C=O)C1=CC(=CO)N=N1 CC1C2(C)COC13OC1C=C2C3C1 CC1C2C3CC(=NCCC=NN3)N12 CC1CC2(ON=CC=C(N)O2)C1=O Oc1nc2[nH]c1C1CC(CCN2)O1 O=C1OC2C3C4CC5OC3C2C15N4 C1CC2CC3CC4(CN=C1N4)CN23 CC12OCC1C13C=C(OC1)C2C3O C1#CC2Nc3c2c[nH]c3CCNC1 NC1C2(O)CC3=C4CCC1(O4)C3C2 C1#CC2=NNC(=CC=NC1)C2 CC12CC3C1CC1=C2C2CC(C1)N23 OC12C3NCC14NCC21CC4C3N1 N=CN1CC2=C3CC4C5C3C5C2C41 OC1C2NN=C(C34C=CCC3N4)C12 CC12OC1CC13CNC1C(=O)C=C32 CCC1N=CN2C3C4(C)CC(O4)C132 O=C1C2=C(NNC=N2)OC=CC1O C1CC2NC34CNC2C3NC(=N1)C4 CN1OCC23NC4CC2(O)C4N=C13 CC1(CNc2nsnc2NO)CC1 CC1=C2NC(=N)C3OC(C1=NN)C23 C1CN2CC2COC2=NN=C1NO2 CC12CC3CC4C1N1CC2C4(C1)O3 CC(O)=CC=C1C=CC(=O)NC1=O CC12CN3CCN1C1CCC2=CC13 C1=NNCc2ccn3c2CN=C3C1 CC1=CNN(C)CCN=CN=C1 CC1=CN=NN2CCC3CC3N=C12 CC1=C2NC(=N)NC3C1NC1C2C31 O=CC1=C2C3NC4(CC3CC24)C1=O OCC(O)=C1C=C(O)c2cocc21 C1#CCOC23C=CC(C=C2)(CC1)O3 OC12COC3=CCC4NC1C=CC342 CC1=C2NNC3CC=CC23N=C1 COC1(C)C(O)=Cc2ncn(C)c21 OC1C2=NNCCC=NN3C(C2)C13 COCC1=CNc2conc2N=N1 COC1=CN=C(N=CC=CNO)C1 CC1CC2CC34OCC2C3CC=C14 CC1C2OC3=NN=CC(CN)(O2)C31 CC1C2OC3=CN=CNNCC2C31 NC1C2=CCC3N4CCC13C(C4)O2 CC(O)=Cc1c(C)cccc1NO CC1CC2N3C1C3C1OCC3NC312 CC(=O)C1=NC=NOC(C)C(N)=N1 C1#CC2C=CC3(C=C2)CCC(=C1)C3 CC=Cc1csc(N=N)c1NOC CONC1=CC=NC(=NO)CC1C CC(=NO)C1CN2C=C(O)SC2=N1 C=COc1o[nH]c(=O)c1C(N)=CO C=C1CN=C2SC=C3CCC=C1N32 C=C1C2C=CC13NC(=CS3(=O)=O)C2 CC12CC(O)C34NC1C(NC23)C4=O C=COC1=NC=C(C=O)OC=C1 C=C1C2=C3C(C)OC4C1C(O2)C34O CC1C2N1CC13CC(=CO1)C2(C)O3 NC1=C(O)NC=C2C1=NNC21CC1 CC1=C(N=O)C2C(=O)C=CC2ON1 C1=CCC23OC(=C1)C1C(C4OC42)C13 CC(C)N=CC=C1CC(=NN)ON1 CC1OC2=C3C(CC2)N=CN(N)C31 CN=C1OC(C(=N)N)ONC=C1C N#CC1N=CC2=C(C3CN3)NOC21 CC1(c2cnncc2C=CO)CO1 C=CC1C2=NNOC2=NOCC1C C=COC(=N)C=C1NOC(=O)C1=O CC1=CC2(C#N)C3CC4C(C3=C1)N42 CC1CC2NC3CC=C2C2C3CN12 C1=CCCC(N=C2CNC=N2)C=C1 C1#CC2CNC3CC(C=C3O2)NC1 CC(C)CC1=CC(=N)NN=C(N)N1 C#CC12C(=O)C3C=C4OC1C=C4C32 NNC=NC12CN3C4C(CC31)OC42 CC#CC1=NC=C2CCN=C2N=N1 CC1=CC(=CNO)C(C(=O)C#N)=N1 C=C1CC2C3=CC1NC21C=CC3C1 C1=CC23CC4C=C(C1CCN2)C3N4 C=C1C2OC3C14COC3(OC)C2N4 C1#CC2COC3C(=NNC3C=C1)O2 CC12C3OC45COC1C4N2CC3O5 N#CC12CC3C4=C1C1OC4C1N32 O=C1C2ON=CC3C=C4CN3C2C14 COC1C2N=CN3CC(=O)CN3C21 NC1C=COC2=C1SN1CCN=C21 CNC1=C(O)OC2=NOC3CC3N21 CN1C2=NC3CC4CC31C(C2)C4=O O=S1(=O)C2=CC3(O)C4C=CC2N4C31 CC(C)C1=C2NNC3CCC23N=C1 O=S1(=O)OC23CNCC24C(OC3)C41 C=C1OC2=CCN3CC4C=CC23C14 CC12NN=CC13ON=C1OC2CC13 O=C1C=CC(=NC23CCN(C2)C3)N1 N#CC1N=C2N=NOC=C2S1(=O)=O CN1CC12C1C3C(=NO)C2(O)CN31 CN1C=CC(=C2N=CC=N2)C1=NN C=CCNNC=C1CNC(=O)C1=N CCC1(C)CON2OC=C(Cl)C2=N1 Cc1cc2[nH]c3c(c2nn1)C=NC3 C=C1CC2=C(O1)OC1=NC3CC3N12 C#CS(=O)(=O)C(=CC=N)NNC=O CON1C(=O)C2(ON=C(C)O2)C1C CN=Cc1occ2c1NNC1CC21 C1=C2CC34OC(CC13)OC4C1NC21 OC12CC3CC1=CCC21C=COC31 C1Nc2c(C3CC3)[nH]c(C3CC3)c21 O=C1C2=C3NCC4C(O2)C1C34 NCC1C2=CC3CC4N=C2NC4C31 CN=C1C2=C(C)NOCC2C2CC12 O=CN1C2C#CC3CC(CC1C2)O3 CC1C2=NC3CC1(CN2C)N1CC31 C=C1C#CC(=C)N=C2CCN(C1)N2 CC1=NN=C2CC3C(C2ON1)N3C C#CC1(c2ccoc2C=CO)CO1 CC1=C2C3OC4(CCC3(O)CC24)O1 CC1C23NC2(CCC3=O)CS1(=O)=O NN=C1C2NC3C4C=CC13NN=C24 CCN1C=C(NC)N2CCCN=C12 CC12C=CCC13OCC1=C3CN2C1 C=NNC=C1N=NCCCC1O C1=NOCOC2C3CC=C(N1)C32 CC1=C2OC3(CC4CC3NCC24)O1 CC#CCC1Cc2c[nH]cc2N=N1 CN=C1C=C2OC=NN2C1=CO NC1C23OCCC(O2)C2NC2C13N Nc1cc2nc(=O)[nH]c-2c2n1CC2 CC1=CC23C=CC4C(=C2)C=CC14C3 CC1(O)C2(C)C(=O)NN=C(N)C12N CC#CC12CC34C=C(OC3O1)C2N4 Cc1cc2c(O)c(c1Cl)NC2CO N=C1OCC(CO)Nc2n[nH]cc21 NC1C2=NCC13COC(ON2)C3O OC1=C2CNCCCN=C(N1)O2 C=C1CNN2C1=CC1NC(=N)N=C12 C=C1CC2CC(C(N)=N2)C(O)C1=O C=CC1C2=CC34CCC(N)(C2O3)C14 CC1=C2C3=CC1C1NC(C3C)C21O C=C1CC2C3C4=C(C=CC4=O)C1C23 O=CC1Cc2[nH]c1c(Cl)c2Cl C#CC1C2=CC3N1C1C2COC31C C=C1CCNC(=O)N2CCC(=N2)O1 C=C1C2CC34OC(=CC13)C2C4CO COC12CC3=C4CN(C3)C(C1=O)C42 COC1C2C3=CCC4CC(O)(C34)C12 NC=C1C(=O)C2(O)C3C(N)=NC1C32 CC1c2ccc(c(O)c2Cl)N2CC12 C1=NC23C(=NN1)C1NC2C1N1CC13 C1=C2OCC34C1NC1CN(CC23)C14 C=NN1C2C=C3OC4C=C3C2(N)C41 CC1=CC2(O)C3=NOC2C2C1N2C3 CC=C1CN=C2N=NC=C(O)N=C12 NCC1(N)C2N=Nc3cc[nH]c3C21 N#CC1=NCC2=C1CNC(=S)NN2 C=C1C23C=NOC14C=CC(=C2)C4N3 C=C1C2=C3OCC4(C)C(OC2)C1C34 NC1CN2CC3CN(CCC1=N2)C3 CCC12C3CC4C5(N)C3C5C1C42N C1=NC2CC3C2C2CC3(N1)C1NC21 C=NNC=C1C(C)=NC2CC1C2 NN=C1C2=CC3(O)C4OC=C2C4C13 N=C1C=C(NO)CNCCC=CC1 C1=C2CCC34CCCC1(CC23)N4 CC12C3CC(=O)N1C=NC(=O)NC32 NC1=NC(=CC=O)C=CC=C1O OC1=Cc2ccc(s2)C2CC(C1)C2 C1=NNC2CC3C4=NCC1C(N4)C23 C1ON=C(C2=NNCC3(CC3)C2)O1 COC1C23OC=CC2C2C(O3)C21C CC1=C2NOCOC(C=O)=C2N=N1 ON=C1C2=C3CC=CC2(O)CC1O3 N=C1NC2C3C=C4OC2C1(O3)C4=O O=C(CN1C=CC=NC=N1)C1CN1 CC1(C#N)C(O)=C(O)c2cocc21 C#CC1NCC(N=O)=CNNC1=O CC12CC(CC3N(NC=O)C31C)N2 C=CS(=O)(=O)N1NN=C2CCN=C21 CC12OC3C=C4C1CC1C4C1(N)C32 C1=COC2(O1)C1NCC3NC=NC312 CC1C2CC34CC2NNC(=NC13)O4 CC1(N)C2CCCC3=CC2N2C3C21 CC1CC2=C3OC(C2)CC3(CO)O1 N=c1cccc(Cl)c2c(=N)o[nH]c12 C1=NN=C2COc3c2csc3CN1 C#CC1NC(=CN)c2[nH]c(=N)[nH]c21 CC1=C2OC3CC2CC1OC=CO3 CN=Cc1[nH]cc2c1NNCCO2 OC1C2=C3CC1CC2(O)C1CC3N1 CC(N)C1=NC2CN=CC=C2NN1 N=CNN=C(N)OC1C=CCC1 NC12C3=CC4C1N4CCN1C(C3)C12 CC(=O)C1=C(C#N)C(=N)C(=CO)N1 CC12N=NC=C(N)C1=CNOC2=O O=C1C2CC34C=C(NC=N3)C2C14O NC1=CN=CC(=C(O)C2CC2)C1=O NC1=NC23C=COC2(C1C=O)C3O NC1=COCc2[nH]nc(NC=O)c21 C1CN2CC3C2C2=NCC3(CN1)N2 C1CC23OC1C1=C2OC2CC3C2C1 C1=CC23CC4COC2(O4)C1C1NC13 C=CC(O)=C1OC=C(NC)S1(=O)=O CC1(O)CN2CCOC=NOC1=N2 CC12CCC3(O)CC(=C1C3)C1CC12 CC(=O)C1C(=N)C=CNN2CC12C C=CC=C1OCc2[nH]ncc2C1=N CC12CC3=CC14OC3C(O2)C4=NN C#CC1OC23C(C)=CN=C2NNC13 NC1=NC(=C2C=CC=CN2)C(=O)O1 NC1=C(O)NN2C1=NC1COCC12 O=CN1C2=C3CC4C(C2)C1C1C3C41 C=C1C2NCC34NC5C(C13)C5(N)C24 NC1=C2CNN=C2N(C=O)C=C1O C=C(OC)C(C=N)=CNNC=N OC1C2C=C3OC(CN=CN2)OC31 CON=C1C(=N)C=C(CO)NC1=N CN1CC(CO)(CO)N=CC=CN1 O=NC=C1NNC2=C1C(=O)CC2=O CC12CC34CC1C(=NC3(C)C2O)N4 NC12CC=C3OC4(CC31)ON=CC42 C=C1C(=N)C=C(S(=O)(=O)O)NC1=O CCN1C=NN2NC3CCC3N=C12 CC12C3=NCC1(O)C1CCC(N3)C12 CC12CC34CCC(N1)C3=C2C=NN4 C=C(C)C12C3=CC4C=C3CC1NC42 O=C1C=CC2=NC(=CC3OC13)CN2 CC1=CN=C(OC=CN=CN)C1=O NC1=Cc2cc([nH]n2)CNNC=C1 CC12CC3CC4C3C3=NOC1C3C42 CC12C=C3OC14CCN2C(C4)C3N O=CN1CCN2CCC(=N2)OC=N1 C1=CC2=NC1=NOCC1CC=C2O1 CCC12OC3C=C4OC1C=C4C32O CC12N(C=CS1(=O)=O)C1CC2(O)C1 COC=CN=C1C=CC(=O)C(N)=N1 CC=C1CC23C=CC(CC24OC14)N3 NC1CN2CC(C#CC3CC13O)C2 CC12C=C3CC4(N)C5NC3C5N1C42 C=C1C=Nc2cc(N=NCC)[nH]c21 c1cnn(-c2nc3scnc3s2)c1 ON1C(=S)N2CCCC#CC=C1C2 CC1=CC2C3C(=O)N4NCCC14C23 CCN1SC=C2CN(CCO)N=C21 CC#Cc1cc(C(O)=CO)c(C)[nH]1 CN1CCC2=C1N=CN(C=N)N=C2 N=C1ON=CCNc2cn1cc2Cl C=CC1CC(=NCCN)C=CNO1 ONC1=CC=CC=C2C1=NN1CC21 NC12CC3=C4COC1C(C4)OC2O3 CC1=C(C(C)CN)NOCCN=N1 N=CN1CC23CNC4(C=CC2=C14)C3 C#CC1CC2C3=CCNC2C2C3N12 N=C1C=C(CC(N)=O)NOCC1 C#CCN=NC1=C(C=O)NC=NO1 C#CC1=C2C=NC=C2C(C)=N1 O=CC12NC3C4CN4C(=NC1=O)C32 N=NC1=C(C2CC2)NN2C(=O)CC12 CC12C3C4NC(C4C4(N)CC41N)C32 C1=CC23C=CC14NCCC42CCN3 CCOC(C=NC)=C(CO)NNC C1=NOCC=C2C3COC2C(=C1)C3 C#CC(=N)C(C)=C(NO)C(=N)NO CC12NC3C=C1CNCC=NOC32 CCC12NC3C=C4OC1C=C4C32O C#CC1NCC2=C1NN=CN=C2 COC(C)C(=N)C1=C(C=O)NOC1 NC1=CN2CC(=O)N=C2C(C=O)=N1 C1=C2N=NCC3(CCN3)C2CNN1 CCC1OCC(C=NC)=C1NNC Cc1[nH]c(C)c2c(=O)occ-2c1N C=C(C)C1=NN2C(=NO1)C=CN2C CCC(O)C1=NCC(NOC)=C1 N#CC1Cc2ccc(c(Cl)c2Cl)N1 C=CC1=CC=C2C3C4C(N)C12CN34 NC1=NC=C2C(=NOC3CC23N)O1 C1NC2C3CNC4=NNC1C(O4)C32 CC1N2CC3=NOC4C2COC41C3 CC1C2C(O)=C3C(=O)NN=C3C12O Cc1nc2c(o1)=CC1(CCC1)CN=2 C#CCN1N=NC=C2CC(=O)N=C21 CC12C=C3CC4C(C5NN=C3C51)N42 CN1Cc2cn3c(c21)CN=C3C#N NC12CC34CC1C(OC(=O)N3)C2C4 N#CCC12CC1c1cc[nH]c1N=N2 C#Cc1snc2c1C1C(C#C)N1N2 CNNC1=C(O)c2c(o[nH]c2=O)C1 CC(C)c1[nH]c2n[nH]cc2c1C=N NC12C3=NOC4OC1C=CC42OC3 OC1C2C=C3CC4CC1C(C4)(C2)O3 CC1=CC2=C(C=NCC(=O)ON2)C1 C1=C2C3C(C1)C1C3OC23CCNC13 C(=CCC1CO1)CN=c1nn[nH]o1 C1=CC23OC45COC2CC4C1C3C5 CN1C=NC=CC2=NC=CC(C1)N2 N=C1NC2=C3OC(C2)C2C(N)C1C32 C1CCC2=NOC(=NNC2)COC1 CC(=C(O)C#N)c1conc1C#N CC12C3NC=NC1C1ON=C3NC12 ON1C=C2C=CNOCCN=C1N2 CC1=C(C=N)C2CCC2N(C=N)N1 CCC12C(=O)NC3=C1OC(O3)C2N C1=NOC23CNC4=NNC1(CO2)C43 C1CC2=C3CC(C2)C2CCNC32C1 C=C1OC2(C)CC3C=C4CC13C2O4 Clc1cc2cnc1CNNC=NO2 C1=C2C3COC4(O1)C1CC1C2NC34 C=C1OC2=CC3CC=NN=C1C2N3 N=CN1C=CC(=N)C(C2CO2)=CN1 CC(=CO)c1[nH]c2c(c1O)NNC2 CC1=NCCC2NNC(C(=N)N)=C12 C1=COC(CN2C=NNC=N2)=CO1 CNC1C=NN2C3C4(C)CC(O4)C132 C1=NC2=NOC(C2)Cc2ccn1c2 CC12C=CC3(CC(=C1)N(N)C3=N)O2 NN1C(=O)C2CC1C1C(=O)N(N)C21 C=C1CC2C3CC4(OC4CC)C1C23 CC1=CC2=CCN3C=NCC(=C23)C1 NC1CN2N=NC3=NCCCC3=C12 C=C1NC(=S)NC=CC1=CN=NC OC12CCC3(C1)OC(=NC2)N1CC13 CCC=C(N)c1c(C)nc[nH]c1=O CC12CC1C(C13CC=CC1N3)CN2 C=C1N=Cc2ncnc(NO)c21 O=Nc1[nH]ncc1NOC1CCC1 CC1=CNN(C)C(C#N)C(C)N=N1 C1NC2CC34C1CNC3C1CN4C21 CC1NC2(C)CN3C=NN=CN3C12 CC12CC3NC4C5C=C(CC31)C2C54 CC1NC2C3C=CC14C1CN(C1)C324 CC1C2CC3(CN2)C2C4CC13NC42 CC1=CC2NC3=NC4C(C3)C2(N)C14 O=C1NC2C3C=C1C1=CC2C(C1)O3 NN1C(C2OCCO2)C=CS1(=O)=O CC#Cc1c(=O)n(N)n2cnsc12 C1=C2CNC3C4C2C4C2=CCNC123 CC1N2CC3CC34CN3CC(C3)C124 C=C(N)c1oc(C)c(CO)c1NO CC1(N)C=C2CC3CC(CC2=C1)N3 O=NC=C1C#CCC#CC(=O)ON1 O=NC1=C2C=CN=C2NC(=S)NC1 CC1=CN(N)C=NC=C1C(C)=NN O=C1CON=COC1=C1C=CNN1 NC1=C2NC(=O)C=C2C(O)C1=CO CC1=C2CNCCC3CC2C(O1)O3 CC12C3=CCNC4C=CC1C2C4C3 C#CC=C1C(C)=C2C3CC4C2N4C13 C#CC1=C2CC3C(C)=C2C2C1CN32 C#CC12CC1CN1C(=N2)C=NN1C CC12C3CC4NC41C1(CNC1)CC32 O=CC1N=NC2=C1C=CNN=C2 CC1C=CC(=O)OC2=CSC(=N1)N2 CC(O)=C(O)c1c(C)sn(C)c1=N C=C(C)Cc1nnc2c[nH]n(N)c1-2 CC12OCC3C4=CC(C31)C2(C#N)O4 CC1=C2C3C4CC2(CC(=N)N1)OC43 OC1C2CC(=NN2)CCC2CC1O2 O=C1C2ON=C3NCC4C2NCC134 C1=CNN=CCC(C2CCO2)N=C1 CC1ONC(=O)C1=C1N=NC=CN1 CNc1cc(Cl)c2c(Cl)c1CC2C CC1C2C3C(O)C34C(=O)N=CN4N12 CCCc1occc1C(O)=CNO CC#CC1=CNc2n[nH]nc2N=C1 CC12NC3C(C1=O)C(N)=NC1C3C12 C#CC12C3C(=C)C4C(C3=NN1C)C42 CC1(C)CC23CN(O)C(=N2)CN1C3 CC1OCC2(O)C3=C1C1OC2C1O3 c1[nH]c2cc1NCC1C3CC2CN13 CN1CC(C=O)C=CC(N=O)=CN1 CC12C=C3C(N)C(C4C3N41)C21CN1 C=NNC=C(C=CC1CO1)N=NC C=C(N)c1[nH]cc2c1CN(CC)N2 CCCC12NC(=O)C3C(N)=NC1C32 NN=C1C=CC2=CCN=CN(N)C21 CC1C=C2C=C(N=CNNCC2)O1 C1=NNC2CC34CC(=NO3)C2(C1)O4 C1#CC2=NOC3OC(C=C1)C=CC23 CNC12C=CC3C4NN=C1C4N3C2 CC1=C2C(=O)C3(C=CC4CC2N43)C1 COC1C(NO)=CC=NC1C(=O)O CC(O)C=C1C(=N)NNC=C1C=N NC12C3=C4COC1CC2(O)C(C4)C3 NC12C3CC(O3)C34C=C(OC31)C2N4 C=C1OC2C3=C1CNC3C(N)C2C CC12C3CCCON=CC1N2C=N3 CN=Cc1occ2c1NNC(=S)N2 CC12NC3C1C(=CC31CN1)C1CC12 C#CC12CC3=C4C(=O)CN(C1C3)C42 C#CCOC(=N)C=C1C=NC(=O)N1 CC1=C(C=N)CC(C(N)=O)C=NN1 OC1=CSN2CC3CCC3NN=C12 CC1OC23CCC1N=C2C=CNO3 CC12CC=CCC(=N)N=C(NC1)N2 CCOC1C2C3C2C2(CO2)C2C1N32 C=CC=CCN1CC(=N)NC(N)=N1 CC1=C2C3=CCC2(N)CC1(N)C3 C=C(OC=O)C1=C2NN=CC2N=N1 N=C1CNNC2=C1CNC(C=O)=C2 CCC12CC(CC(C=CNN)=N1)C2 C1#CC2=CC=NN3C(CCOC1)C23 CC1=C(N)c2c[nH]nc2C(CO)N1 NC12CC3CC1=NNC21CNN=C31 CNCc1[nH]c2c(c(=O)c1C)CN2 OC1=C2C=CCCON=C(N1)O2 N=C1C2NC2C23C4NC(C4=O)C2N13 C#CC1=Cc2[nH]oc(=NO)c2C1=N OC=C1C=C(C2C=CCOC2)C=N1 CNCC1=C2NOC(=NO)C2N=C1 CC12CC1C13CNC2C(C=CO1)O3 N=C1CC23OCC2ONC3=C1C=O CC1=NNCC(O)C2=CC(=N1)ON2 C#CC1N=NC2=C1NOC(=O)C=N2 C=CC1ONC2=CC=NC(CC)C21 COC1=NN2C(=C(C#N)C3CC32)N1 C=C(O)c1c(OC)n[nH]c1C(=O)O CNC1=C2OC(CO)=CN=C2NC1 N#CC1NC2C3N=C4NC3C2NC41 C=C1CC2=COC(=NNCC1N)S2 CC1C2=CC3N1C1(C)C2OCC31C NC1=NON2C1=NCC21CC(=O)C1 CNC1=CN=CC2=NC(C)C=CN12 NC1C2C3C=C4C5CN(C5)C41CC32 C=C1CC2C3OC4=C1C2C3(C)C4=C N=CC1=CNN(CCN)C(=N)C=C1 C=C1CC(C)N=C2SN=C(N)N2O1 C1CC23CCC(N=C1N2)C31CNC1 NC1=CN=C2C(=NOC3COC23)O1 COC1=CNOC2CCN=C12 CC12C3C(O)C4N(C5CC5N31)C42C O=c1[nH]c2nn1N1CC1C=CC#C2 N=C1CN2NC=C(C3(N)CC3)C2=N1 CC12CC3=C(O1)C1(C=CC(C3)O1)C2 C1=NOCC2=CN=C(CON1)NC2 NC12C(CO)C=C3OC(OC31)C2O CC1(N)C2=CC3OC4C3C2=CC41N CNCC12CN(C)NC1=CC=N2 NCC1C2C3=CCN4CC(C34)N12 OC=C1CNc2c1oc1c2CCC1 CC(=O)C1=C(NO)C(C)C(=O)C1=N C1=CC2=C3C4CCC3(CN4)NC2C1 CC1Cc2c[nH]c(C3CO3)c2N=N1 C1C2NC2C23Cc4[nH]nnc4C2N13 CC1=C2CC3(N)CCC(O1)(O2)C3O C1=CC2CC34C=C1C(OCO3)C2C4 OC12C3CCC4C5C1N5CC42NC3 NC1CCN2CCC(=N2)OCC1O C#CC1=C2C(=NOC2C)N(C=O)S1 C1=CC2=NC1=NCc1cc(no1)O2 CC12C=C3C4CC4(O)C(=O)N3N1C2 COC12C3=CC4COC3=CC1CC42 C1=NOC2CC2C2=CC(=N1)N=CO2 C1=NC23CC2(CC2CNCC=C23)N1 NC1=CNC2=NC3C(O)C3(C=O)N12 C1=NC=NOC2=NOCOC=C12 Oc1[nH]c2cc1C1CC(C1)OCC2 NN=COC1=C(C=NN)OCC=C1 C#CC12CC3(CC(=NO3)N1)OC2=C NCCC1C=C(N)c2c1[nH]sc2=O CC1=C2CC3CC4(OC3OC14)C2C C1=NC2C3COC4=NNC2C4(C3)N1 CC1Nc2n[nH]cc2C(N)=C1O C=C1CC2(O)CC3C1=CC1OC2C13 C#CC1=NC2=CC(CC2)NNC=N1 CNC=CC(O)=C1NC(N)=CC1=O O=C1C2C3C4=NOC(C4)(C23)C12CO2 CC12COC3=C(O1)C(CO)(C=C3)O2 CC12CC34NC1(C)C2C3CC1OC14 CN1NC2CNN=C3C=CN=C1C32 CC12CC3C(N)=C(C(=O)N1)C1C2N31 N=C1C=CC23NC(=O)C2NNC=C13 OC1C23C=C4C=CC1(NC2)C4CO3 O=C1CNCCN=C2N=NC=C1O2 OC12CC1CC13OC1C1CNC23C1 C=C1CC23CN4C(C2O1)C4C31CN1 O=C1C2=C3OCC(O)(C2)C2OC3C12 NN1C2=CN=CC1=NCCOCO2 CN1CC(c2cc(CO)co2)=CN1 N=C1NN=C2C13OC1C(C3O)C21N NC12CC3C4C1=C1CCCC1C2C34 CC1C(=O)C(=N)C(=CNO)CC1O C=C1N=C2NC3C4CC2CCN4C13 CCN1C=NC2=NCCC2=C1O C=C(NC=O)N1NC=CC1=CC=O C=CC1=CNNC(C#N)CC1=NC CC1COc2cc(N)ncc2N=N1 N#CC1=C2C3CCN4CC(C1N3)C24 C1CN2C3CNN=C4NCC(O1)C432 C1=NOCOC2=CCC(=COC2)N1 COCC12CC3C4=C1CC1C4C1C32 CC12CC3CCC14C3OC1C(O2)C14 NC1=C(O)Cc2[nH]c(=O)[nH]c21 C#CC12CC1(CO)C(C=O)C(N)=N2 NC12C3=COC1C=NNC2=NCC3 CNC12C3=NCC1C(C)(N)C2NN3 CC12C3CC4CCC(=O)C41N=CN32 CC(C)ONc1coc(C=CO)c1 NCC12NCCC3C1=CC1C2CN31 CC1CC(=O)ON2C(O)=CSC2=N1 CCC1(C=O)C=CC(N)=CC(N)=N1 NCC1C2=CC3CC14OC3OC4C2 CC1=C2C=CC3CC(O1)C23N1CC1 O=C1NC23C=CC4(C=C2)NN=C1C43 O=C1CC2=C3OCC24COC13CN4 C1CC2=C3C(CC2)C2CC(C2)C3N1 C#CC1=NN(C)C(N)=C(C#C)C=N1 CON1C(=O)C2=C(OCC2)C1=CO C#CC1=CC=C(C#N)C(C#N)=NN1 N=C1C2=C(CC1O)NNC=NCC2 CC(C#N)N1N=NC=C2CCN=C21 CC(C=CC1C=CC(N)=N1)CC=O O=C1C2=CC3CC(O)(C2N3)C2CN12 CON=C1NC2C3=CC4C1C2N4C3 C1=CC2C3COC24CC(=NC14)NN3 OC1CN2CC3=CC4C=CC2C41C3 c1c2c(cc3nsnc13)NCCN2 C1CN1C1=NOC2C1=NNC21CC1 Cc1nc(NO)c2[nH][nH]cc-2c1=O COCCN=C1CN2OC=NC2=N1 O=C1NCC23OC4(CC=C2O4)CC13 C1=CC23OC4C(CC25CN5)C4C3C1 CC1C=CC(O)=Cc2c1s[nH]c2=O CC1=CC23CCC2C2CCC3(O1)O2 NC12CC3=C4CC(C3O)N(C1)C42 CN(C)C1=c2ncccc2=NC1=O COC12C3=CC4OCC3=CC1OC42 CC1C(N)C2C3=NC(N)=CC3=NN12 CC1OC2OC3CNC24C1=NOC34 N=C1C=C(C(N)=O)NN=CCC1O N=C1OCC=CC1=C1NN=CC1=O C#Cc1nc2c(o1)=C(N)CCON=2 C=CC1=C2CC3CN4CCC13C4C2 CC12CC34CCCC(N1)C3=C2CO4 C1=NC=C2C1=NN=C2C1=NOCO1 CN=C1C(=CO)C(=O)C(N)=CN1C Oc1c2c(c3n1C1CN(C3)C1)CC2 CC12OC=C3C=CC1N1C(C2=O)C31 C1=CC2=CNOC(=NOCC1)N=N2 CCC(=O)C(NC=O)=C1NC=NN1 C=C1OC(=O)C=NNC=C1C(C)=N O=C1C=C2C=CCCN2C1=CNO CC12NC3C=C4C(=CC31)OCC42O CCCC1CC(=O)N2SN=NC2=N1 CC12CNC3(CC34COCO4)C1N2 C=C1CCCNCC2C3N=C1NC23 C=C1OCC2(O)CC3(OC=CO3)C12 C#CC1C2C=C3OC2(C)C2C3C12N C=C1NC(=N)C=C2C3OC3C=NN12 OC12C#CC=CCONC1=NOC2 CC1=CCON=C2C(O)=C(O)NN12 CC1(C)CN2C=C(O)C(O)=CC2=N1 C=NN1OC=C2C1=NC=NC2C=O CC1CNN2C1=CC1NN=CN=C12 N#CC1CONC2=C1C(=N)C(=O)C2 C=C(O)c1cn[nH]c1C1CCC1 O=CC1C2=CC34CCC(O)(C2N3)C14 COC12CC3C4C(C)C4C(=CO1)C32 N=C1CN=C2CC3=C(C(=O)CC3)N12 O=c1[nH]c2nn1C1CC(C1)OC=C2 COn1[nH]c2c(C=O)cnc-2c1N CN=CC1=C(C=CN)NNCCC1 OC12C3NCC14C1CNC4C3C2O1 C#CCCc1c2o[nH]cc-2[nH]c1=O C=NNC1=CN=NC2C1OC2(C)C C=C1C2C(C)CC34CC(=CC23)OC14 C#CC1=C(O)CC(=C)n2cncc21 CC1=NC(C)C(C)C1=C(CO)NN NNC1=C(C2=NOCCO2)C=NC1 OC12C=NNC3C=C4CC3(C1)NC42 CNC12CC3CC4=C(OC1C4)C32O N=c1c2c(O)[nH]n1C=NCCC#C2 CNNc1nccc2c(c1=O)NC2 C=NN=Cc1[nH]nc2c1C(=C)NC2 CCC1C(=O)c2c3c(nn21)NOC3 C1=C(c2cnsc2)COCCNN1 CC1=CC2C3C2C12NCC1(C)C2N31 C1=CNN=CCCC2CC2CN=C1 CC12OC=CC13C(CN)N3NC2=N NC1C2C#CC=C3CNC(=N3)C1N2 CC1=C2C3=CC=CC2(C)NC1C3N C1=NNN2CC3C4CC(C4)N3N=C12 COC12C=CC34OC(=CC3C)C1C42 N#CC12CN1C1=NC3CC4C1C4C32 CC1=CC(O)=C(O)C2=NCCCN12 C1=CC23CC45OCC(NC2C14)C5O3 CC1CC(=NN)c2cc[nH]c2N=N1 CNCCOC(=N)c1cn[nH]c1C C(#CC1CN1)C1=C2NN=CC2N=N1 C#CC1(OC)CONC1=CC=NC CN1CC1(C)C1=CN=C2C=NN=C12 CC1=C2C3=CC4C2C(C1)C4(C)OC3 C=C1c2ccoc2C2=CNNC12C C=C(O)c1cn[nH]c1C=CC(C)=O CCC1C2CC3N4C5CC3(CC54)C12 C=C1CC2C3=CC4C(C3=O)C1(C)N24 O=C(C=C1N=CC=N1)c1cnno1 CN1C(O)=CC2=NC(=O)C3(CC3)N21 NC12C3C=CCC1C1C=CC(=C3)C12 CC1NNC(CO)=C2C1=NCC2O N#CC12CC3=NOC1C1(O)C(N2)C31 CC12CCCC=CN=C(C1)NC2=N C1=NC2CCCc3onc(c32)ON1 CN1NC(N)=C2CN3CC(C3)N=C21 CCC1N2CCC3=CN=C(NN)C312 CC12C=CC3CC4(CNCC4=C31)C2 C=C1C2=C3CC1(N)CC2(N)C1OC31 CC1OCC=C2C=CC3=CC1OC23 OC1CC23C1N=CN2NCC31CC1 C1=C2OC3OCC24C(C1)CCNC34 N=C1N=C2CN1C=CCOC(=O)N2 COC1(CO)C=C(O)c2c[nH]nc21 CC1=CCC(=N)NC(N)=NCC1O OC1=C(O)c2csc(c2)CNCC1 CC1=CC(=NC=CNC=O)CON1 CC12CC1c1nn3sccc3c1O2 CC1(C23OC2CC2(CN2)C3N)CC1 COCC12C3=NCC1CC2ON3 C#CC(C=N)=CNN=C(C)N(C)C CCC(C)C(C(=O)NN)C(=O)NN CC1(O)C2N=C3NC1C1CCC3C12 C=C1C23C(C=CC2N3C)CS1(=O)=O Cc1c2nsc1CN1CC1CON2 CN1C(C2(C)CO2)=CN2CCN=C21 CN1N=C(CO)N2OC=CCN=C12 OC1=CN2CC=CCNN=C1O2 CC12ON(C=N)C3C4N=C1NC4C32 C1CC2CC3C(=N2)NC2CC3C2N1 CC1(C)N=CC2=C(C3CN3)NNC21 C1=CC23CCC4=NCC2OC1C3N4 N=CC(CC=O)=C1CC2CCN2N1 CC1=C2C=NC=C2C=C(C=O)ON1 CC1OC(=CNN)c2[nH]ncc2O1 C=CC1(O)C(O)=Cc2[nH]c(=N)sc21 CC1=C(C=O)NC(C(=N)N)=CN=C1 C#CC#CCC1=C(N)C(=CO)N=N1 CC1=NC2=NOC1=NNCCC=C2 CCCC1=NOC(CO)=NC(N)=C1 CC=CC1(C)N2C3C2C2OC3C21O CC1C2=C3OC1(C)CC2(O)CC3N C=CN1C2C(CS1(=O)=O)C2N(C)C C#CCCC1=NC(=NO)N=CNO1 CC(=N)C(C#N)=C1C=CNC(=S)N1 CC12CC3=C4OC(C)(C3N1)C2C4O N#CC(N)=C(N)C(=O)CCOC=O CC1(C)C2OCOC3=CC2N2C3C21 NC1CCOCCn2[nH]nc1c2=O C#CC12C=CCC13C(C(C)C2)N3C C=C1C23C=C4C=CC1(CCN2)C4C3 NC1=CC(C(N)C2CC2)=NNC1 CC1C2(C)CN3C4C5NCC13C5C42 C=C1C2=CC(=CCCC#CC2)C1N C1=CC2C3NCC4OCC=C1C423 CC1C2=CC3C=CC1(CN=CN2)N3 CCc1[nH]c(NC)cc(=N)c1N=N O=C1C23CCC(N2)C12CC(=NO2)C3 C#CC1c2oncc2C2=CNOC21 CC1C2C=C3C1CC=CC3(CN)N2 COC1=C(N)N2C(=NC3C(O)C32)N1 NC1=NNC2=NCC=CC=CCN12 CCC1NC2C3=CC(=O)C2C2C3C12 N=c1cc(O)c2c(O)ncn2cn1 CN1N=CC(=CC=CC=CO)C1=O C1NC2=NOC(CC3CC1C3)O2 C1CC2=NC34CNC(C(C3)N2)C4N1 CC12C#CC3CC(C=CC1O2)CN3 C1NN=C2NC34CNC2C3OCC14 C#CC(O)=C1CNCc2nocc21 CNNC(C=NO)=C1C=CCN=C1 CC1NC2C3N4CC4C14N=CNC234 CC1(N)CN=C2N=C(N)C=NC=C21 NC1C2OC34C5C=CC(C5)C3C4C12 CN1C2C3=CCN4CC(C34)C21C=O C1C2ON=C3NCC4(CNC1C34)O2 C1=C2OC3(O1)C1CC4OCC2(C1)C43 CC12C(O)C3C4(O)C(CC31O)OC42 OC1C2NCCN=C3SC=CN3C12 C1=C2CON=C2C=C2CCCC2=N1 CC1C2C3=CN=C(C=NN)C3=NN12 N#CC(N)=C1NC=CN=CNC1=O CC1(C2=C3C=NN=C3C(=O)N2)CO1 ON1C(CC2OC=CO2)=NC2CC21 CN1C2C=CC3=NNC4C2C=CC341 C1=C2C3CN4C2C(C1)C4C1COC31 C1=C2CC3COC2C2(COC1C2)N3 C1=NN=C2C13COC21CCC(C1)N3 COC12CC3CNC(=C(C)C1=O)C32 C#CC(C)(CO)N1CC2(C=N1)CO2 N=C1C2=C(NOCC(=O)O2)C2NC12 CC12CCNN=CC3(C1)ON=C2O3 C(NCC1CO1)c1[nH]nc2c1CN2 NC1C2Nc3scc(C4CN4)c3C12 CC12CNC3CC4=CC31CC(C4)C2 NC1C2CC3(N)CC(O)C=C(O2)C13 CNCC1CONC2=C(C=NC2)O1 CC(C)C1CC2C(N)=NNC(=O)C21 CC1=C2CC3N4CCC13C(O2)C4C COC1=c2[nH]c(=N)ncc2=CC1=N CC1OC2C3C1=CC1(O)C(C3N)C21 CC1=C2C3=CC(O)CC2(O)CC1C3 CC1=C(O)C(CO)c2ncn(C)c21 O=S1(=O)C2=C3CC4C(N3)C(O2)C41O CN=CC1=C(C=C(C)N)NN=CC1 C#CC12CC3(C)OC(=O)C(=C3O1)O2 CC1CC2=CC=NOCCC3C1N23 CC1=CC=CC2=CN=C(OC1)C2=O CC=C1C2=C3CC1N1CC(OC2)C31 CC1CC(=N)NC(N)=NCC1C=O C=C1C=NOC2=NN=C3CC1NC32 CC12CNC(N=CN)=NC1CC2=O C=C1CC(C)=CC2=C1N=NC=NN2 O=NC=C1C#CCNC(=O)CNN1 CCC(=O)N1Nc2ncsc2O1 O=NC1=C2N=CC=C2NOC(=O)C1 CN1CCn2oc(=N)c([N+](=O)[O-])c21 CC12C=C3OC(=O)C4NC1C2OC34 ON1CC2C3CCC4C1=NC2C4O3 CC12CC(N)C3C4C5C(C1CN45)N32 CC1C2C3=CC4CN(C42)C1(C)CO3 C1=C2NC(=NNCC3CCC3N2)N1 C1N=C(OC2CC2)NC1CC1CO1 C1CC2NCC34CNC(=NC1C23)C4 O=C1NC(=CO)C=C1NC1COC1 CN=CC(OC)=C(C=CCO)NN O=c1[nH]n2nc1N1CC1COC=C2 CC1=CNC=C(N=NC=O)NC1=O C=CC1=CN(O)C=C2CN(C)N=C12 CC12CC34CON=C(N1)C3C2=NO4 CC1C2c3[nH]c(C=CO)cc3CN12 O=C1NC2=CCC13CC1C=C2C3N1 C=C1C2C3OC3C13NCCC1C3N12 CC12CC3=C4COC(C1C3O)C42C C1=NOC2C3NC2C12C=C3NC=N2 C1=NCC2OC2C2CC(=N1)NC=N2 C=C1CC2C(C)N2NC=C1C=NC COc1cnn(C(C)=O)cc[nH]c1 NN=C1C2CC3=NC1(CO2)C(=O)N3 O=C1C2CC#Cc3cc(cs3)C1C2 NCC1=C(Cl)C2=NCC(O)C2=CN1 CC12CC3(CC(=CO3)O1)C(=NO)O2 N#CC1=C(N)NC(=CNC(N)=S)C1 C=CC12NN=C3C1=CC1C3C(=O)C12 C1=NC2=NNCCC3(CC3)CN1N2 C=C1C(C)C2(CC2)N2C=NN=CN12 C1=C2Cc3coc(c3)CN=C(C1)N2 C1=CCC2NNc3n[nH]nc3C2=C1 N#CC12C3=NOC4(CC(O)C1C42)O3 Cc1noc2[nH]c(CO)c(C=N)c12 CC12C3=CC4CC1(COC42)C(=O)N3 CC(=NC(C)C12CC(CO1)C2)NO NC1=C2C=NC1=NC1CC(CC2)C1 CC12CC1C1(C=O)N=CC=C1NO2 CC1=CC23CC(CC(=N1)N2)CC3N C#CC12ONC3=NOC(C1OC)C32 CNCC(O)=C1COc2cocc21 COC12C3=CC4CC1(CC3)NCC42 CNC(=N)C1Cc2sc1c(Cl)c2O NC1=NCCN=C(N)C1C(=O)CO NCC12CC3CC(=C1C3)C1CC2N1 OC1=C(O)C2=NC3CCC3N2C=N1 CC1=CC(=N)N=C2C(=NSN2C)O1 NC=NC=CN1C=CC(=O)C1=CO O=C1C2=CNCC2C2=C1NC=NN2 C#CC(=O)C1=CC(=N)C(C#N)ON1 C#CC1=CN=NC2CC2C=NN1 C=CCC1=C2NNCC2(C#N)N=C1 CC12CC3C4=CC1NC3(CC4)C2O C=CN(C=O)NC(=CC=N)C(N)=O CC1N2C(=O)NC34COC3C=CC124 C#Cc1n[nH]cc1C=CC=CNO NC12C3CN4CC41C1NCC1OC32 C=C1CNCC2=COC3=CC1OC23 CC1CNC2CC3N=CNC34CC124 NCC12CC3CC(=C1C3)C1CC1N2 C=C1C2=CC=CC3(O)C(=O)C1C=C23 NC12Cc3ncc(o3)CCNC1C2 CC1C2=COC13C1C4CC3C2(N)C41 C1=CC23CC(=NO2)C2C=C(C1)C3C2 C=C1CNNC2=CC=NC2C1=CC CC12ON=C3CC4=CCC1C4(N)C32 Cc1snc2c1C1C(C(N)=O)N1N2 CC12COC3(OC(=N)N=C3N1)C2=O C=CC#CCC1NNC=C1N=NC C=NNC=C1CC(=O)OC(=C)C1=N CC12NC3C4C(=O)C(N=C(N)C31)C42 C=CN=C1NCc2nn(N=C)cc21 OC12C3=C4C=CC3CC1CC2O4 O=C1C2C3=CC1(NC3)C1=C2OCC1 CN=C1N=NC(C)=C1NOC(C)=O CC12CC3=COC4(CC(C1)NC34)O2 CC1=CCCC(O)=C1c1ccoc1 C=CC(N=O)=C1NOCCOC1=O CN(C)C(=O)C(=N)c1c[nH]cn1 CC1N=C2CNCCC(=O)CC1N2 C=C1C=NC(=NCC)C(NOC)=N1 C=C(CO)CNC(C=CNO)=NC CC1N=NC(=C(CO)NN)CC1O CC1=CC2=C3C1CCC(O)C3CC2 Cc1c(Cl)cnnc2noc(=O)c1-2 NCC1=CN(C(=O)O)C2=NCCN12 CN=CNNC=C(C=N)CCO C1#CC2(CN2)C2=CNC(=NOC1)C2 C#CC1=CN2C=NC3C(C1N)C32C CCC1=C(O)C(O)c2[nH]c(C)nc21 NNC(=O)C12OC3CC1N=C(N)C32 CN1C(=N)NC2(C)CC3C=C1C2O3 NC1CNC2=NCC#CCNC1=C2 C=CC1=NCC23C(N)C2(O)CON13 O=C1CC2=CC3C=C2C12NCC=C32 CC12CC3NC4C3C(=O)C(=NN1)C42 CN=C1C(=C(C)NO)C2COC1C2 C=NOCC(=N)C1=CNC(=N)C1=O C=CC1=C2CNN=C2C=C(N)N=N1 CC12NN=C3C4C5C(CCN5C41)C32 NC12CCC3CC1C=C1COC32C1 COC1=C2C3CC1C(N)C2(C)CN3 NCC1=C(CO)C23CC1C(=NO2)O3 NC1CN2CCNC3=NC1(CN3)C2 C(=COC1CNC1)Oc1ncn[nH]1 OC1CC2C3NC4=NC2(CN4)CC13 O=C1C2C3=CCC14OC2C(O)C34O C1=C2CC3(CO1)OC21CNN=C3C1 CC=CC1=CNNC(CN)C1=NC CC1=C2OC(CN=CNC3CC23)C1 C1=NCC2CNC3=NCC4CC34N12 CC1CN2C=NNCCCC1=C2 COC(C=CN1C=NNC=N1)OC CN=C1NC23CCC4(COC2=C14)C3 OC=C1C=NC=C1Cn1cnnc1 C=CC(O)=C(O)c1cn(C)cc1C C1=CC23CN4C1C=C(CO2)C4CO3 CN1N=C2NOC3OC4CC1C23C4 CCOC1=C(O)NC2=NCCON21 COC12C(=O)C3=C4OCC1C4C2C3 NN1CC2C#CCC(=O)NN=C1O2 CN1C2CCC34CNCC3C1C=C24 CC12OC1C1C3CC4C=CC2(N3)C41 NC1C2=CC34CNC5C(NC2C53)C14 C#CC1=C(O)N2CC=NN=C2N1 CC1CN2CCCC(=N2)OCCN1 CCC1=C2CC3NC4CCC13C4O2 NCc1cc(N=c2cc[nH]s2)cs1 C1=NOC(=Cc2cn[nH]c2)C2CC12 COC(=N)C=C(CC#CC=O)NO N=c1sc2nn1C=CC1CN(C2)C1 CC1=C(NO)CN=C1C(O)C(=N)N OCC1OCC1N=NC1=CNOC1 CC1=C(CO)c2[nH]nc(N)c2C1=N CCC1=CC(=CNO)N=C1CC=O NC12CCC3=CCN(CC14CC4)C32 CC12C3=C4CC1(O)C(C4N)C2OC3 C=C1C(O)C2=CC3(O)C=C2C1(N)C3 NN1C=CCC2=CCN(C2)NC1=S C=C1C#CC2N=C(NC2=O)OCC1 C=C1C(=N)C(C)=C(C#N)NS1(=O)=O C1CN2CC3CC4(CNC3(C2)C4)N1 CCNNC1=CC=NCCC1=NO CC1=NC(N)=C(C(C)O)C(C)=NO1 N#Cc1nc[nH]c1C=C(O)C1CN1 C=C1C2=CC3OCC1(OC2)C31CO1 CC12C(N)CC34OC(=CC31)C2O4 C#CCC(O)=C(O)c1occc1N C=CC1C#CC2=CC(=NC=N1)NC2 CN1CC(NO)=C2C(=O)N(O)C=C21 NC=Cc1cc(NO)ccc1NO CN1C=C(Cl)C=C2C1=NOC2CN C1=NNC2=NCC3=C2N1CC1OC31 C=CC12ONC3=NC4C1C4(O)CC32 NC(CC=O)=NCC1(C=NO)CN1 CC1=NOCC(C)=C2C=NC=NN12 NC(CC(C=O)=NO)=NCC1CO1 C1=CC2OCC3C4COC23C=C4C1 C1=CC2N=NC=CNOC2C1 CC1CNCC2=NC(=NC2=O)CO1 C=NNC=CC(C=C(N)CC)=NO O=C1C2=NCCC1CC=NNC=N2 C=CC(=Cc1csnc1CN)NO O=C(C1CC1)C1N=NC2=CNOC21 C=C1C=CC2C=NN=C(NC=N1)N2 C1#CC2=CCN3C(CC=CC=C1)C23 NC12CCCC=CN=C3NCC1C32 CC1N=C2N=NNN=C2C2C(C)C12 CC1=NC(=N)CN=C2C=C(O)ON12 CC1NC12C1CC3C(=CCC32C)O1 O=C1C=CC2=C(O)CCCCCN12 C1=C2c3scnc3C13CCN1C2C13 N=C1NC2=NOCC(=O)C#CC1=N2 CNC1=NN=CCN2CC=C(C)N12 CC12C=C3CC14NC3C2(N)CC4O COCOC=C1C=NC(=O)N=CO1 CC1=NN(O)C2=NCCOCC2=C1 CC1COC=CC2N=C(C=C2N)N1 C1OCC1C1CNNc2nonc21 CC1=NCC2=C1CNCC(=N)NN2 CC(O)=Cc1cnc2ccn(O)n12 C=C1OC23CC4=CC2OC1C3C=C4 CCN(CC)C1=C(C)N=CC1=CO C=CC12CC3=C4C(C)CC(C1O3)C42 CC12N=C3NCC1C1(C#N)CC2C31 C=C1C(C=NCC)=CNC(=S)N1C C=C1C2=CC3(CN4CC3(C)C14)OC2 CC12CN(O)C3=NC1CC1CC3N12 COC(=N)C=CNOC(=O)C(C)=O CCN1C2=NC3CC4(COC3C14)O2 CC1CC2C3CC4(C(N)C4N)C1N23 CCC1=C(CCN)N=NCC=NN1 C1=CC2C3C=C(C1)C1=NNC2C13 C#CC1=C(N(C)C)N=NCC=NN1 C=C1CN2C=NOC(=NOCO1)C2 NCCOCC1N=Nc2cc[nH]c21 NC12C3C=NOC14CCC(=CC32)O4 CC1OC2C13OC=CC3OS2(=O)=O C1=C(N=C2CCON2)CNCCC1 NC1CC2=NCCC3=NCC=C1N32 C#CC1=C(C)NNCC1=NCCC COC1=C2C(CN1)C(=O)CS2(=O)=O C1C2NC2C23OC2c2nnoc2C13 CC1OC2=CC13CC1(C)C=C2C3N1 N=c1c2c[nH]n1CCC#CCN=N2 C#CC12CC3(O)CNC(=NN1C)C32 CC1=CC23C=C4OC2C1(CN)C4O3 C=C1C=NN2C=NCC3=NN=C1C32 CC12CC3NC4C(C3=CNC1=O)C42 OC(C1CO1)C1N=CC2=CNOC21 CCC1=Nc2cc[nH]c2N=C(C)O1 CC12C3=COC1C1=COC(C3)C2O1 CC12CC3OC1OC=CCC#CC32 CC12C3CNC(C1C=O)C2N=C3N O=C1OCC2=C1NC=NN2CCO Cc1[nH]c2c(c(=N)c1O)C(C)NC2 C=C1C=Nc2c1c(C1CN1)nn2C O=CNC1=CON=Cc2c[nH]cc21 CC1=C2C(=NN=CC2(C)O)N=NO1 N=c1c2cccn1N=CC=NN=C2 COCC1=NOC=NC(N)=C1CN NCC(=CC1=NOCC(N)=C1)CN CN=C1C=C2C(=CN3CC23C)C=N1 CCC1=CC2C(C)C3(C)CN=C1N23 O=C1CC2N=C3CCONC=C3C12 O=NC=CNOC(=O)C1=CCCC1 NC1C=COC(C23CC2C=NN3)=C1 CC(C)Oc1c[nH]c(N=N)c1NO CC12CNN=C3CC(=NN3)CC1N2 CCC1=C(C)NN=C(NO)N=C1 C1=CC2=CC3NC4CC4C34CC24C1 C1CNc2nsc3c2NCC3NC1 CC(O)=C1CC(CO)c2[nH]ncc21 CNNc1[nH]ccc(=N)c1C1CN1 N=C1N=CC2=CC3(C=CC=C12)CC3 O=C1C2=CC3CCC4N(C2)C1C34O CC12CC1N=C1OC3=C(OCC3)N12 CC(C=O)OC1=NC(=CNO)C=C1 N=Cc1c[nH]c(=N)n1C(=N)C1CC1 N=C1N=C(N)C2=C(N)CS(=O)(=O)C12 CC1=C2OCC1Cc1c(O)c[nH]c12 NC1CC2NC3C4=CC2(N)C13CC4 N=C1C=NC(N2CCOC(=O)C2)=N1 N#CCC1C=C2CNNC2=CC=N1 O=C1C2=CC34CNC(C(O)C3C2)C14 C#CC1=C(O)N2C=CCN=C2S1 CC1C2CC34CCC5OC53C2N1C4 C1=NC2=NCCC3=C(OCO3)N2N1 C=CC1C2=C3CC1(N)C1CC(O2)C31 NN1Cc2oc(=O)ncc2S1(=O)=O OC12CC1N=CC2=C1C=CCON1 Cc1csc2c1C(=CNN)N=NC2 CC1C=CC2=C(N)NC=CC2=N1 N=CC1=C2NN=CC23NC3C(=O)O1 CN=NC1=C(NO)C(C)OCCN1 NC1C2Oc3[nH]c(C4CC4)cc3C12 CC1=CC=NCC2COC(=NN1)N2 C1=C2CCC3C4CC3C(C2)C1CO4 CC1N=CN2C1=CC13CC=CC1N23 COC1=CN(C)c2[nH]cnc2N=C1 CC1=C(Cl)C=NN2CC(C)CN=C12 C=CC(=N)C(CC)=C1C=CC(=O)N1 CC12C=C3C(C1)NC1C(=O)C(N2)C31 C#CC12C3=CC4(CC1(C)CC42)NC3 CCCC1=C(NO)CON=CN=N1 NC12CCN3CC14CC3C1C2N1C4 C1=CC2=C(NC1)OC1=NOC=NN12 c1sc2c3c1CC1OC1C3OCO2 C=C1CCC2=C(CO)NN=CN=C12 CN=NC(C)=CC=C1C=CNC1=N C=CCCC(=CC=NC)NN1CC1 CC(=N)C=C1C=C(C=O)OCON1 OCC1=CCN2C=C(O)SC2=NC1 CC1CN2C=NNC(=N)NCC1=C2 C#CC1=C(O)CN=Cn2cccc21 C1=NC2=CCC3CC34CCCC24N1 O=C1C(=CO)C=CN1c1cnno1 O=C1CCC2=C3C(CC2)COCC13 CNC=NOc1oc(OC)nc1C CCC12CCC3C4CC3C1CC=C42 CC12CC3CC4=C(CC=C4)C1C3N2 N=c1[nH]c2c(s1)C(=O)C1NNC=C21 C=COC1=C(O)CCc2oncc21 CNN1N=CC=C2CC(C)ON=C21 CC1CC2C1C1CC3=NOC2(C3)O1 C1=C2C3NC4(C1)CN1CC3C1CC24 CC1=C2C3CC4C5C2C5C1C1C3N41 C=C(C12C=CC(CC1)O2)S(C)(=O)=O NC12C=CC3=C1C1(CC=C2C1)OC3 C1=NNCC2=CNC3=NOC1OC23 C=C1C2=C3CCCC2(O)CC1(O)C3 CC12C=C3OC4C(CCC41C3N)O2 C=CNC(Cc1cn[nH]c1C)=NN CCC1(C)CN2CC3=COC1(C2)O3 CCC1=C2C3CC4(CC3NC24)C1O CNC12C3=C4CC(O3)C1OC2C4 CC1N2C(=O)C3CC34CN3CC3C124 CCOC(C=O)=C1N=CC(C)=CO1 N#CC1(CC=O)N=NC2=CNOC21 CC1OC2OC3CC4=COC2C13O4 NN=C1C=CCNN2C1CS2(=O)=O N=c1nc2nc(o1)CC=COCO2 C=C1C2C=C3OC2(C)C2C3NC12C CC1OCC=C2OC3CC2C3CO1 C=CC=C1C=NC(=O)N=C(CC)O1 C=C1CCC2=C3C(=NNC2)COC13 Cc1[nH]c(=O)n(C=N)c1C(=N)C#N NC1=NN2CC3C(O)C3N=C2C1=O CC12C#CC#CC3NC3C(=C1)C=C2 C#CCCC1=CC(=CC=N)NC1=O OC12CC34CC1CC3C2=NN4 O=CC12CC3(O)C(O)CC(=CO1)C23 CC1=C2N=NC(C=O)C(C)C2NN1 CC12N=C3NC1C1C2C3C(=N)N1O C=C1CC2ONC=NN=CC1=C2C CC1C2=CNNC=NCC1ON=C2 N=C1NC=C2C=NC(C3(N)CC3)=C12 CC1C23CNC14C(=O)NC2C4CO3 CCCc1noc2c1NNC=C2O C=C1NC=C2OC3(CC3)CN=C2N1 N=c1c2c(n3n1N=CC3)CC(=O)O2 ON1C=NOCC2C3C=C(C1)C2C3 C=COC1=NC(=O)C(=NC)N=C1N O=CC12C=C3OC1C1(O)CC=C3C21 C#CC1=CN=NCC(C)N=CNN1 O=C1OC=C2CC(N3CC3)C(O)=C12 C1=NOC23C4CC5C(CC2C1N4)C53 CC1C2CNC1C1=C(COC1=O)N2 CC1(O)C2OC3C4=CC2NC31CO4 CC(C)C1(C)Cc2[nH]c1c(Cl)c2O CNNc1nc(C=C(C)O)co1 C=C1CC23CC24CC=CC4OC3O1 CCNC=C1C(CO)=CN=C1NN CCCC1=CNNCc2ccoc21 C=C1C2CC3(C)N(C)C4CC13OC24 CC1C=C2C3NCC24NC13CC4N NC1=NN=C2OC(=O)C(N)C2=CC1 CCn1c(C(C)=CNN)coc1=N C=C1c2cn[nH]c2C2C(C)C(C)N12 C=C1C2=NOC13COC1C2(C)C13O O=C1OC2=C3C(CC2)C2NC2C13O C1CCOC2=NOC3C(CC1)C3O2 C#CC=C1N=C(C)c2[nH]oc(=O)c21 C=C1C2CC3(C)C=C4CC13CC42O OC1(C2=CC3C4C=CC3C24)CNC1 CC1(CC23CC(C2)C(O)C3O)CC1 CC1C2OC=C3C4C5CNC(C54)C312 CC12N3CC(CC31CO)C21COC1 CN1N=CC23C=C4C=NN=C4C2C13 O=c1sc2c3n1OCC=C3CCN2 CC1C2CC(=O)N3OCC4(CN4)C123 C=C(CC)C1=C(C)N=NC=NN1 CC(C)=CN1NCC2=C(N)CN=C21 O=C1C=NN=C2CC3C(N2)C3ON1 NC1CC2C3C4=CC15CC4C(C5)N23 COC1CCC(=N)C(C=O)=C1NO N=C1NC23CCC4(COC2=C14)C3=O CNC=C1OC2=C(CN=C2)NC1=N Cc1snc2c1C(=CNO)NCC2 N#CC12C3NN=C4CC3C(=O)C1C42 CC12COC3(COCC34C(O)C14)C2 CC1OC2C1C1=C(OCC1)S2(=O)=O CC12CC3=C4CNC1(C#N)C4N2C3 NC(CC1=CC=CC1CC=O)=NO C1=CC2=NC(CCNN1)C1(CO1)C2 CC12NC13C1CN(C1)C3C(N)C2O CN1CCC23N=CNC2(C2CN2)C13 CC(N)=CC1=NC=C(C#N)C=CO1 C1=CC23C=C(C=NOCC1=C2)CC3 CCC12N=C3NCC14OCC2CC34 CCCC12C3CC4CC(=NO3)C1C42 OC1=Cc2cnsc2C2(O)CC12 O=CC1CC(=O)C2=C1C(=CO)N=N2 C=Cc1c(=O)n(OC)n2scnc12 O=C1C(O)C23C=C(CN2)C2C3C12O CC12C=C(CNCC=NO1)NC2=N OC1C=C(N=C2CC=NN2)CCC1 C=C1CONC2=C1N=NCC2(C)N C=C1CC=CN=C2C=CC(N2)C1O C1=C2OC3CC4CCC1NC2C3N4 C=C1C2CC(=CO2)CCN=CN1C CCN=NC(C)=C1CC(CN)ON1 C=CC(=O)C(C=NC(C)C)=CNO CC12C#CC=CC3CC(=NN3)C1N2 CC12C3CC(C=O)N(CS1(=O)=O)C32 CC1C2=NCC1OCC(N)C=CN2 C=C1NS(=O)(=O)C2=CC(=O)CCN12 C#CC1CCC2=C(N=CON=C2)O1 O=C1OC2=C(O)CCC2=C1C1CN1 O=S1(=O)C2CC=C3C4CCC31NC42 CC1CN2CC=NOCCC1=N2 CCC1=NCC#CC2ON=C(N1)O2 CC12C3=NNC1CC2(C(N)=O)C=C3 OC1C2C3C4CC5(CC=CC4N25)C13 NCC1OC2C3CC4=C1C2C3C4 CC1C=CCOC2C3NN=C(O1)C32 CC1=C2C=C(C=CC(O)C#C1)CC2 COC1CN=NC2=C(CC=C2)NO1 NC12CC3CCOCC1=NOC2O3 CC1=CCN=CN=C2CC(=O)C1N2 NN1C2=NC3C1C1(O)C2CCC31O CC12CC3C4=C1CC1C(O4)C3C12O CCCC1=NCCC2=C1OC=NN2 CN1NC(=O)CC2=C1NCCC2=O O=CN1C=C2CC(CO2)ONC=N1 O=CC1=C2C(=CCN1)CNS2(=O)=O NC=NC1=CC(=CO)S(=O)(=O)C=C1 CC12NC3=NCC1NC1CC(O3)C12 C#CC12CN3CC(=CN)C(=NN1)C32 CC1(C)C(=O)C2NNC3=NNC1C32 CC12CC3C1(O)CC1(O)C3(N)C21C C=C1C(=NO)N2CCCC3C1C32C C=C1C2CON=C3C=CC2N2C1C32 CCC1=C(N)C(=C(C)O)C=CC1=O CC1C2C=C3C(N2)C(O)CCC31O CCC12C3C(C)C4(N)C1N2CC34O C=C1C=NNCC(C)C2CNC1=N2 C#CC(O)C1=CC(=N)C(NC=O)=N1 CC1=CC(C)NN=C2C=C(NC2)O1 CC1C2C3=CC14NCC2(C)C4CC3 N=CC1=C2NOCC2=C(C(N)=O)C1 CC12CC3=CC14CNC3C4C(=N)N2 CCC1C2C#CCN3CC(C3)CN21 OC12C3C4CC5C(C31)N5C1CN4C12 CC1=NCC2=C1CCC(=NN)ON2 NC=Nn1cc2c(n1)C(=O)C2CO NC12C3=CC4CCC1(CNC42)NC3 C#CC12CN=CC1=C(C(C)N)NO2 C#CC1=CCC23C4OCC12COC43 CC1NN=C2SNC(C(=O)C=O)=C21 CC1NC=C2C(N(C)O)=NOC21 NCC1=C2C=NN=C2C2=C1NOC2 Cn1c(C23C=CCC2O3)csc1=O CC=C1N=CC=CNNCC(=O)N1 C=C(C)N1NC(N)=C2NCCN=C21 COCC1=CC(=N)S(=O)(=O)C(=N)N1 CCC1=C2C3CC4(C1)OC3OC24C C=C1C2=NC(C)C1C=NOCON2 CCC=C1C(C)N=C2C=NN(O)N12 CC1=C(N)Oc2n[nH]cc2N=C1 N=C1CC(NC2=CC(=O)CC2)=CN1 C1NCC2C3C4ON=C(CN23)C14 NC12C3OCC1(O)C1=CC3C2O1 Oc1sc2nc1C#CC1NC1C#C2 OC1CCC23CNC4(COC2=C14)C3 NN=CCC(=CC1CO1)N(N)C=O CC1C2C3CC4(CCOC124)N1CC31 OC=C1CC2OC2c2c(Cl)csc21 CC12NC3C(=O)CC(=CC1=O)C32C C1=C2CC3CC4(OCC3C4NC1)O2 Cc1c2[nH]cc(N=O)c2cn1C Clc1c2coc1C1CC1ONC=N2 O=CC1C2C3CC14OCC1OC14C32 C#CC=CC(C=NC=NC)=CNO CCNC1C2=CNNC2=CS1(=O)=O CC1N2CC3(C=O)C4=CCC13CC42 C=CC12CN1N=C1C=NC=CC=C12 C1=CCC2C3C4CC(=CC4C1)CN23 C=CC1=NCCC(NN2CC2)=C1C CC1=C2C=CCOC3C=C(C1)C2O3 O=CC=C1N=NC(C2CCC2)=CN1 N=CN(N)C1=NNCCC#CC#C1 ON=CN=C1CCN2SC=CC2=N1 CC1=C2CC3C(O)C2C2C1CC32N C#CC1C2CC3C=C2C2C3C(C)N12 O=CC1C2N=C3NCC4CN4N3C12 CCC12C3=NNCC4(CNC1C42)N3 CC1=C2OCC34CC1C(C=CC23)N4 CNC1=C(C=O)NC(C=O)=CN=C1 O=C1C=C2C(=CC34C=NOC3C24)O1 CC1=C2CN=CNN=C2C=CN=N1 N=C1NNC23CC=C(C2)C2C3C12N CCC1=CNN2OC3CC(C3)N=C12 CC12OC3CCC4=CC1C=C4C32 N=C1c2ccn(c2)NCCCN1N CC12OC3=CC1C1C(O2)C3N1C=O OC=C(O)c1ncn2c1CN=C2 NC1=NC2=C(C1O)C1C(=O)C2C1O Cc1[nH]nc(NCC(=O)O)c1C=N NC1C2=CNOCC2=NC1C(=O)O OC1C2=NC3CC1(ON2)C1OC31 CN1C2=NC3CC4CC2=CC4(O)C31 CC1C(NO)=CC=NC2(CN)CC12 O=c1c2nn(O)n1C=CC=COC2 C#CC12CC3(C)CC(=C1C3)C1NC12 CNC1=C2C=C(C)N=C2NN2CC12 C=CC1N=C2N=NOC=C2C1C#N CNC12CNC3CC4C=C3C1N4C2 OC12COC3(COC4C=C1C3O4)C2 OCCC(O)=C1C=Cc2occc21 CC(N)=C1C2OC(OC2C)S1(=O)=O OC1=Cc2nc[nH]c2C2CN(C1)C2 C=C(O)c1c[nH]nc1N1CC1 C1=NNC2C(=NN1)C1C3OC2OC31 CCC1=C2OC3C4C=C2CN4C3C1 CC1N=C2NC3CC1(O2)OC3C=O CCC12N3CCC14C=CC(O4)C32C C1=NC2=NCC34NC(CC3N1)CC24 CC1=COS(=O)(=O)C1=C1CCON1 C1=NC2=NOCC2=Nc2conc21 C=COC1=CNOc2sccc21 CN1OC=NC(=CS(=O)(=O)O)C1=N CC12C3=NNCC4NCC1N2C4C3 CC12CC3C4=C1C(N)C1C4CN1C32 CC1=NC(=CNO)C(=N)C1=O CN1CC23C=CC(=N1)C(C=CO2)O3 CN1N=C2C=NNN2CC2CCC21 CC1=C(O)N2C=CCCNN=C2N1 NC1=NC2=NC3(CC=CC3)CN2O1 NN=CC12COCC1COC2=NN CC1=C(O)N2CCC(C)ON=C2O1 C#CC1=NCCN=C2NSC(=O)N12 CC1(C23C(N)C2(O)CC2CN23)CO1 CC(O)=C(c1ccccc1)C(C)C N=C1CCC=CC2NNC(C=O)=C12 CC12C=C3OC4C(C3O1)C(N)C42N C#CC12CC=CC34CC1C(N3)C2C4 C#CC1OCOC2=C1NC(=N)C2=N CN=C(CC(O)(C=O)C=O)N=CN NC12C3C(CO)C1C1C3C1(N)C2O N#Cc1c(N)[nH]c2c1C(=CO)N=N2 CC12C(C=O)=CC=C3C4C(OC31)C42 C=CC(=N)c1c[nH]c(=O)nc1N CC(C)(C)C1=NON2OCON=C12 N=Cc1cn[nH]c1CC1OC1CN O=C1CCNC2=C1C1(CCC1)CN2 Cc1c[nH]c(C2=NOC(C)ON2)c1 CONC=C(NO)c1cc[nH]c1 COC12C3=NCC1NC2C(=O)N3O NCC1=CC2C3CC14CC(=CC24)O3 CC1(O)C(=N)C2=C(NOC2)C1=O CC1N=C2OC(=O)SN2C2COC12 NC(=CC1=NCCCNN1)N1CC1 NC12CC1C1=CCCN1C2=NO CCC1ON=C2C=NC(N)=CC=C21 CC12CC13CC1NCC=C1C3CO2 C#CC1=NC(=NN)CC1=CNN=C C=C1N(N)C2=NCC(C)=C2N1C=N C=CC12C3C4CC(C)(C5CC4N51)C32 CCC1=CC2=C(N)C(C)NNC2=N1 NC12C3=CC(O)C4(CC1CC2C4)O3 OC1CC2C3CC=NN=CN=C1N32 CC1=Cc2cnoc2S(=O)(=O)ON1 NN1CC23OC4CC2C(C1=O)C4O3 C=C1C=NC(=C(C#N)C=O)N=CO1 CC(CN(C=NO)C=NO)N1CC1 O=CC1CNNC(CO)=CC=N1 OC1C23CNC14COC=C2C4OC3 N=CC1=C(C=O)NOS(=O)(=O)C1 C=C1N=C2NC3CCOCC1C2C3 CC1CCC2C13CN3C(=O)S2(=O)=O CN1C2=NNC3C1C1C2OCC31C CC12CCC3C4(N)CN(C4)C31CC2 C1=CC23OC=C4OC5CN(C1C52)C43 OC1CC23CC4CC(O2)C1=CC3N4 CC1=CCN2CC(C)N(N)C(=O)N12 CCOC12C=CC3C1=CC1C3CC12 CC(O)=Cc1cnc2oc(=O)sn12 C=C1OCC23NC24C=NNC4CC13 O=C1CC2=C3OC1CC3(CO)OC2 C=CNC1=NC2(C)C(=O)C1N=C2N CC1=C2CN=Cn3ccc(c32)CO1 CNCC1=CNOC(=O)CCN=N1 CN=CC=C(CCC(C)=NN)NO N#CC1=C2CNC(C=O)=C2C=NN1 Cc1ccc(C=O)cncn[nH]1 CC12CNC(CO)C3=C1CC(O3)O2 C#CCC(=O)NC(C=NC)=CNN C#Cc1c(C)[nH]c(C=NN)c1N=N C=C1CC23C4COC2(COC43)C1=O C#CC12C=NNC3=NC(C=C31)C2=C CC12CCC3C1C#CC=NN=CC32 NCC1CCC12N=NC1=CNOC12 O=c1cnc2c3n1OCC=C3OC2 O=C1CCN2Nc3nn(O)cc3C12 CC1=CC(=N)C2=C(C=O)NNC12 Cc1c(NN2CC2)nnc2c1NC2 CNNC1=Cc2cc(C)nn2C1=N CC1=NC(NC=N)=CC(CO)=NO1 OC1CC2N=C(n3nccn3)OC12 CC(=O)OCC1OC(=N)C=C1NO O=CC1=CN2C3CC3(O)C(=O)N2C1 O=C1C2CC3(CN2)C(CO)CNN13 COC1=CN2C(C)CC23C=NN=C13 CNC12C=C3C=CC1C1(O)CC2C31 C=C1NC(=S)N2CC(=NO)C=CN12 CC1=C2N=NC(C)C23NCC3ON1 CC12C=CC3CC4(C=C31)COCC42 CC1OC=C2CC3C4N3CC1C24N COC(=O)C1=C(O)Cc2sccc21 CC1N=C2CC(C#N)C3C=CC1N23 CC1OC2C3C4CC25OCC4C5C13 CN1CC2=NOC(=NC3CC3C1)N2 COC(C=C1NCC2C(N)C12)=NO CCOC(NN=C(C)N)=C(C)C=O C=C1C=C2OC3=CCC4C1C2C34C C1=C2CCC3=C2C2(CO1)OCC3O2 C#CC1CC1C1N=Nc2cc[nH]c21 CC1C2=CN=CON=C2C2OC12C C1=NNC2C3OCC24NC3=NOC14 C=C1CC23C4COC2(CNC43)C1=C C1=CNNCCOC=CCN=C1 CC12CC1C13CC4OCC4C1(C2)N3 C=C1C2C3OC2C2C=C3CCC12N C=C1C=NC(=N)C(n2cnnc2)=C1 CC12C(N)C3=C4C=CC1C4N2C3 CC1=C2C(=O)OC3C2NCC2C1C23 O=C1OC2=C3CC4CC1(C2)N1C3C41 NNC1=NN2C3CC(C3)C23CC3N1 NC1CC2CC3N4N=CCC34C12N CC1CC2(C)CCC=C3CC1C=C32 NC1CC2NC3C4=CC2(C(=O)N4)C13 C#CC1=NC=NOC(N(C)C=C)=N1 O=C1C2CCC3C=CC4OC2OC134 O=c1cnn(C=C2OCC3NC23)[nH]1 OCC1C2N=C3N=NN=CC=C3C12 C=NOC12ON=C3NC(CC31)C2N NC12CC3CCOC1=NOC2OC3 NN=CC=C1C=CC(C=NN)CN1 Oc1c2sc(c1Cl)C1CC1CC2O CC1(C2C3=CC=CC3=CC2O)CC1 C=C(C)C1N=Nc2nc(NC)[nH]c21 CN1C=NNC2=C1C(=O)CCN2 NC1C=C2CC1(N)CCON=CN2 CC12C(=O)C3NC14C=NNC4=NC32 CC(N)C1=C2N=NC3CCC23NN1 C=C(C)c1cc2c([nH]1)C(C)(C)N=N2 N=c1[nH]oc2c(C3CC3)c(=O)[nH]n12 CC1C2CC3C4(C=NOC13CO4)O2 CC1C2=CC3(N)C=C2C(O)(C3)C1C N=Cc1occ2c1NC(=S)NC=C2 CC1CC2C(O)C2C(C=CNO)=N1 C=C1C2NC34CC2C=C3CCOC14 OC1C2C=C3CC4C(C=NO2)C4C31 C=COC12C3C(=C)OC1C2OC3=C C=CC1=NNC(=CC(=N)CO)C1N CC12CC=COC3C=C1C(CO2)C3 O=C1NC=CC2(O)C=C(CN1)OC2 C=NNC1=C2NC(=N)N=C2C(=C)C1 CC1=C2C3CC=CN3C(=O)N2OC1 C=NN=CN=CN(N=CC)C(=C)C CNC1=NC(OC)=COC=C1C#N CC1=C2CC#CC=NN=C(CC2)O1 CC1C2(C)NCC3=C2C(N)C1(O)C3 C=CCC1(C)N=CN=NC1=CNN NC1C2(O)C3C4OCOC3C4C12O CNN=CN=CC=C(NN)C(C)C CC1CCC(C=O)C(=N)C1=CNO O=C1OC2=CC(CC3CC1O3)OC2 C=C1OCC2=NOCc3ccn1c32 C1ON=C2NCC(CC3CN3)=C2O1 C=C1C2C=COC3OCC(=NN2)C13 O=C1C2NC3C2C2C4CC2(O)C13O4 CC1(C)C2C=C3CC2C2C3C21CO CCC=C1OC(=O)C=CN=C1CC CC=C1C=NC2=NC=NN(C)C=C12 CNC1=NC=Cn2nc(C)nc2C1 N=CC1=C(CN)NN=CCOC1=O C1=NN=C2NCCC3=C2C(=CC3)O1 CC=C1CONC=C1C=NCC CC12OCC3(CO1)C2ON=CN3O NN=CC1OCc2c1c(Cl)cn2N CC1(N)C2C3NC14C1CC1OC4C32 CC(N)c1[nH]c2cccn2c1C=N NCC1C23CON=C2C2C(N3)C21O N=C1CC2CC3C4N2CC(N1)C34O CC1=CC2C3CC(=O)C4=C1CN2C43 CON1C=CC2=NCC3CC3ON21 C1NCC23NC4(CC4)C4C(NC12)C43 CC1=C(O)N2CC=CCCN=C2S1 C1=C(c2ncc3nnon23)OCC1 CNC1=NC(OC)=CC(CN)CC1 O=C1NC2=NC13CN(C2)CS3(=O)=O NC1=NC=C2C(=NC3C(O)C23)C1=O C=CCc1cc2c(s1)C=C(NN)C2 N=C1C(=CO)C=NN1C(C=O)CO OC12COC3=C1C1C=CCC2N1C3 CC1C2=CC(O)C3C4CC=C2C4N13 CC1CNC2=NOCC=CCN1N2 CC1=C2C=NC(C(C)CN)C2ON1 CC1=NN2NC(C)(C)C(C)N=C2N1 CC1N=NC2=C(C=O)NN3CCC213 C=C(C)C1=COC(=CC)C(=N)N=C1 C#CC1C(C)=C(N)c2c(O)ccn21 C1=Nc2cocc2OC=C1C1CN1 C1=NC2=C3OCON=C3COC2=C1 C1=NNCC2=C3C1=CCCC3NC2 CNC1=NC=C2C3C=CC21CO3 Cc1coc(=NN)c2c1C=CNN2 CCC1=C2CC(C)CN2N=CN=C1 CCC(N=CC=CNO)C1CO1 N=CC=C1NC(=O)c2c1ccn2N CC=C1C(=NC)C=CNOCC1N COC1C(=N)C=CNN(C)S1(=O)=O CC1=CSN2CC#CC=CCN=C12 CC1(N)C2=CC3CC14NC3CC4O2 CC1CC2=NN1CCC(N)C=CN2 C=C1CCOC23CC(=NO2)C1(O)C3 NC1=NC=C(C=NO)C(=O)N2CC12 NNc1cccc2c1C=CNO2 CC1=C2C3=CC4(C)C(C3)C2C4(N)C1 C#CCCC1=CNS(=O)(=O)C1=N C=NOC=C(C(C)=O)c1ccc[nH]1 CC1=C2CC34CN3N=CC4C2=CC1 CC12N=C(N)CC1C(=O)CN=C2N C#CC1=CC(N=C(N)NC=N)C=C1 CC12C=CC=C3OC(=CO1)CC3O2 NCC12C=C3C(O)C4C1CN4C3C2 CC#CC12NC1CN=NC=C2NN C=C1CNC2(C(N)=NC)C(C=O)C12 C1=NNC2=NOC13CCC(CN2)O3 OC12CN3CC(O)(C1)C1(O)C3C21O CC(C=CN1CC2OC=CC21)=NO NCCc1c(=O)[nH]n2[nH]cc(O)c12 N=CC(CO)=C1C=CC(=O)C(=O)N1 CC1(N)CC2CN3C4C=C1C(C4)C23 CCC12CN=C3OCC(CC1=O)N32 C=C1CNC2=NN=C(CO2)OCO1 CNN1C=CC23CCC(N=C12)C3C C=C1C(=O)C23C=C(NC2=NO)C1C3 NN=CC1OCOC=CCC1=NN CN1CC23CN4CC(C2=N1)C4C3N CN1C=C2C(=NC3CN2C3)N1C CCC(N)C12CC1N1ON=CC1=N2 OC12CN3CC1N=C1NC=CC12C3 CN=C1NC23C=C1CC1C2CN1C3 N=CNC=Nc1cc(Cl)cc(=N)o1 C=NN1C2CN(N)C3=NCC(=C)C321 NC1=NC2=CNC(=O)C2(O)C12CO2 CC1=NCC2=NN=C(CCN1N)C2 CC1C2OCC3OC(NN)=NC312 N=C(N)C1=C2C=NC(=N)C2=C(N)C1 CC12CN=CC(CN)=C1NN=CN2 CC1(C)NC23CC=C(C2N)C1(N)C3 CC(NO)=C1OCCc2sncc21 Cc1nc(NN)cc2c1C=C(O)C2 NC1C=CC2=C3C1=NNC3CCO2 NC1=C(C2CCC2N)C=NOC=N1 Cc1scc2c(C=CNN)c[nH]c12 C1=NC2CCC2ONC2=C1OCC2 N#CC12CC3=CC1C1(O)C3=CCC21 NC1C2NC23CC2(CO2)CC32NC12 CC1C(O)C2CC3=CC4C1C2N4C3 CC1=NCC23C(O)CN4C(CN12)C43 N=C1CCC23C(=O)CC4(CC4)C2N13 CC1C2N1CC13COC1CC1NC123 CN1C=C2C3CC(CC2(N)C1=N)N3 NN1C=NC2C=COC3OCC1=C23 O=C1OC2C3=NOC4C2NCC14O3 C=CN1C2=NCC3C1CC1(N)C2C31 NC1C2C3C4CC5CCN5C14CN23 CC1C23CC4C(C=NO2)C1(O)C4O3 CC12CNN3C=NN4CC4C31CO2 O=CC12CN(CC=C(CCO)O1)C2 O=CC1=C2CNC3C(C1)CN1C2C31 CCN=C(C)C(C)=C(COC)NN OC12CC3=C4OC(CO3)C(C1)C42 C#CC(O)=C1CCc2occc21 CN=NC=C1NOC23ON=CC2C13 Nc1[nH]cc2c1N=CC(=CC=O)O2 CC12CC13C1CC(O1)C1NC13CN2 CC1=CNOCC2(N)CCC2N=N1 C1=C2C(C3CC(O3)C23CC3)C2NC12 CC1N2c3sc(=N)[nH]c3C1(N)C2C C1NC2CC34CNN=C(NN3)C2C14 O=S1(=O)C2=NN=C1OC=CC=CO2 CNC=NC1=NC=COC1C=NO C=C(N=CN)NC=C(C)C(=O)C#N CC12COC3=C4C=NOC1C(O4)C32 O=C1CCCC2N=CC3=CNOC132 CN(C)CC=CC1=C(NN)CN=C1 N=CC=C1NOCC12CS(=O)(=O)N2 NNC1=NC(COC2CC2)C(N)=C1 CN=C1CC(NC)C(O)C1=CNN N=C1CC23C(CCN2N1)NS3(=O)=O CC(CO)C1NN=C2C1=CON2N N=CC1=CNC2=NC3CC3N=CN12 N#Cc1[nH]c(O)c(CO)c(=N)c1O CC12CC=COCC=C3OC1CC32 CNCC1C=CC2=NON(C)C2=N1 CC1C2C3=CCC2CN1CC=CC3 C1=Nc2[nH]ncc2C2=CCC=C2O1 C1=C2CCC3CC4NCC3C14OC2 OC1CC2C3C4=COC5C4N2C5C13 C1=C2OC3=C(OCC3)C2OC12CC2 NCC(O)CC1N=NC2=C1NOC2 C#CCC1=C(NO)C2C(C)C2N=C1 NNc1cccc(O)c1C=CNO CN1C2CC=C3Cn4cncc4C321 O=C1CC23OC(=CC1O2)CS3(=O)=O CN1CC1C1C=C2C3CN4C2C4C31 CCN=CC(COC)=C(CC)NO C=COC12C3CN4C(C31)C(C)(N)C42 C1=CC2=NN=C3CCC(CC1=C2)O3 CC(=O)C1=CNC(=O)C(=N)C1=CO CC(O)CC(=Cc1cn[nH]c1)NN N=C1COC(=O)C=C(N)CC(N)=N1 NC(=NN=CN1CC1)C(=O)CCO CC1N2CCC13C1CC4NC3C4C12 NC(CC(=O)CCCC1CO1)=NO C=CC(=NC)C(CN)=C(CO)NO ON1NC=C2C1=NOCC1CC2O1 C=CN1CC2OC2C2=C(N)CN=C21 COC=CC=C1NC(=O)N=C(C)O1 CC12COC1C1(N)CC23C=C1CN3 C1=C2CC3C1C1CC4CC1(O2)C3N4 CN1CCC=C2C=CN(C=N1)NC2 CC1=C(Cl)C2=NOCC(C)C2=NO1 CC1=NNC2C1=C1CCC3NC2C13 CC1(N2NC3CC(C3)C2=N)CC1 C1#CCC2CC3OC(CC#C1)C3N2 CC=C1C2N=C3NC4CC2C4C13 C=NNC1CCC(N)=NC1C(=O)O CN=CC(C=CCO)=C1CCNN1 NC1=CN(C=O)C2=NOCCCN12 C1=NN2CCC2c2cc(no2)NO1 NN=C1OC2=CC3NC2C2C1OC32 C=C1CC2(C)NN=CC3COC1=C32 C#CC12NC3=NC1C1OC3C(=O)C12 CN=CC(C#N)=C1NN=CC1=NO O=C1C2CN3N=CC4CC43CC1N2 CNC12C(=O)NC3C4=CC(C1C4)C32 CCN(C)C=C(N)c1occc1O CC12CC3CC1C1NC4COC31C42 N#CC1(O)C2C=C3C=NC(=O)N3C21 C=CN1N=CCC2=C(N)C(C)N=C21 C1=C2C3COC2(OC3)C2=C1CCO2 CS(=O)(=O)C(O)=C(N)c1cnoc1 CC1C2=CN=C1NN=CC=C(N)O2 CC1=C(CO)c2c(c(=O)sn2N)C1 CC1=CCC2(O)C3CC(C#C1)CC32 CCN=C1C=CC2=C1C(CC)ON2 CC1=C2OC3CC=CC4C1C4C2O3 NC1CN2CCC3=CC2C2C(C3)C12 NC1CCN2C3=NN=CC3CN2C1 O=C1N=C2C=CC#CC(O)CC1=N2 N=C1C(N)CC2=NC=CC(=O)ON12 CC(=NN)C1=C(C)N=C2OCC=C21 O=C1CC23C=COC4(C=C1C2O4)C3 CC1N=C2OCC3C(=O)C1N23 C=C1COC23C=C4CCC1(C2)C4O3 C#CCC1(C)CNN2ON=CC2=N1 N=c1scc2cc(Cl)c(=O)cnn12 CC(N)=Cc1ccoc1C=CNO CCC=C(NC)c1[nH]ccc1O N=CC1=CNC(=O)C(=O)C1=CN CNC12C3=NNC4(C3)CC(N)C1C42 CC1=CC=C2N=C(N)C3C(=O)NC123 C=C1CNC(=NC=CN(N)C=N)C1 C=CCC1=C(NO)Cc2nocc21 O=CC1=CN=CC=C2OCOC=C12 NN=CCCCN=Nc1cc[nH]c1 NN=C(C1CN1)N(N)CCC1CC1 C#CC(O)=Cc1csnc1OC C1#CCC2CC3=NOC(OC1)C3C2 C#CC1CC2=C3C1NCC3(C)CC2 C=C1C23C=NN=C(O2)C2C(O3)C12O CN1C=CC2=NC34CC3NCC4N21 C(=C1OC2CCC1O2)C1=NOCC1 N#CC1=CC(=CO)NC(=NO)C1=O CC12CC3C4=CC1CC(O)(C=C4)C32 CC1C2=CCC1C1CC1NNC=N2 C=C1CN=C2CNC(=N2)NC(C)=N1 CN(C1(CO)CC1)C12CCN(C1)C2 c1nnc2[nH]c3c(n12)N1CCC1C3 C=C(N)c1c(O)cnc2[nH]ncc12 O=C1C2(CC=NO2)CC12OC=NO2 N=C1N=C(NN)OC1CC#CCO N#CC1(CO)CC(=O)OCC(N)=N1 N=Nc1c[nH]c2c1C1(CCC1)NC2 C#CC1N=C2C=C(O)SN2CC1N N=C1C=NC(C2OC(=O)CC2O)=N1 S=C1NC2=NOC34CCOC3C24N1 O=C1C=NC(C#CC2=COCC2)=C1 CC(C)=Cc1[nH]oc(=NO)c1C=N CCN=C1OCONC=C1C1CO1 CC12NCCN3C1C1=C(CNC1)C32 C=C(C)C1CCC(C(N)=NC)C1=O CC(O)=C1OC(C)c2cocc21 CC12C=C3NC(=N)C1C1CC=C3C12 NNc1cc(C2CC2)c(N)c(=O)[nH]1 CC12C=C3CCC=NN=CC1C3O2 C=CN1NC(O)=C2CCC(C)N=C21 C1CC1CC12NC(C3NC31)C1NC12 C=CC12C3=C(C)OC1CC2C=C3 CC1=C2CNCC3CC3CC(O1)O2 C=NNCC1(C2(C)CC2)CNC=N1 C=C1C=CN=C(N)C2C1C(=O)N2N CC(O)=C1C=NS(=O)(=O)C(=O)N1 CC12NC3=NC=CC3=C1CNC2=N CC1=NN=CC2=C(C#N)NN3CC123 NC1C2N=NC=C2NN2CC=CC12 C=C1C2C3=NOC14CCC3C4C2O CC(=O)C12C=C3C(N1)C1OC3C12O C1=NN=C(CC2=COCC2)N=CO1 CC(=O)n1nc(NN(C)C)cc1O CC1=C2C3NC4C3N3CC3C24C=C1 CC12NCCC1CN=CC2=CNO CONC=C1NC(N)=C(C#N)C1=O CC1(Oc2coc(=N)nn2)CNC1 CC1Oc2cc(C=O)c3c(c21)CO3 C=CNc1nc(=N)c(O)ccc1C CC1=CC2CC3(N)C4=COC2(C4)C13 C=CC(O)C(O)=Cc1coc(C)c1 NC1=NC2CNCC23C1C3(O)C=O C=C(c1cn[nH]c1)N(C)CC(=N)N N=c1oc(O)c2c3c(sn12)CNC3 C=CC1OCC(=NC)C(C)=C1NO C=NNC=CC=NC(=C)N(C)C=N CC12NC(=O)COC3C(N=C1N)C32 C#CC=C1C=CC23C(N=CN2O)C13 CC12CC(=O)C3=C1C1CN2C1(C)C3 C=CCC1=NC(=N)NC(CO)=CO1 O=C1N=COC=C2CN=CN=CN12 N#CCC1=CC(C(N)=NO)NC1=O C#CC1CONC=C1C=NCCC CN=C1C(C)C(C(C)=NN)=CN1N S=C1NOC2CC2CC2=CN1OC2 NCC1=C2C3=CC4C(O3)C2CC14O C=CC(=CC(C(C)O)N1CC1)CC CCN1CCNC2=NC=COCC21 O=C1C2=NCC3(C=CC1N3)C1CN21 CN=Cc1c(C(C)N)[nH]sc1=NO CC1=CN=C(C#CCN=CN)C1=O NCC12CCN3C4COC(OC1)C432 C#CC1=C2CC3C1C1OC3(C)OC21 CCC1=NC(=O)N(OC=O)C=CO1 CC12CC13CC(C=O)=CN=C3NO2 CC12C=CC3=CC(COC1)C(O3)O2 CN1CCN=CN=C2CC1CN2N CC12CCC34C(N)C3COCC14O2 CN1C=CCC=CN2N=CNN=C12 CC1=C2CN3C1C1NCC2C2C1C23 CC1NC=NC2=C1C1(C)CCC1O2 CC1CNC=NC(C)CN(N)C=N1 C1=NNC2CC3CCCC2=CC=C13 CCN=CC(=CNOC)OCOC Nc1noc(=NCC2=CCCO2)[nH]1 CCc1ccsc1C=CC=C(C)O C1=C2COCOCCC3CN(C2)C13 NC1CC2=CC3CN=CNC1C2N3 COC1=C(NN=CC#N)C(C)N=C1 C=CCN1C=CC(C(=C)C)=NC=N1 C=C1C2C3CC3C13C=CC1N2C13C CNCCC1ON=C2N=NOC=C21 N=CC1=CNOC2(CCC2C=O)O1 O=C1NC2=C3CCC4NC(C1O3)C24 CCC12N=C(OC)C=C1NN=C2C CC1C=C2c3c([nH]sc3=N)CC2O1 CNNc1cc2n(n1)CC1(N)CC21 C1=C2CC3CC2NCC1OCCN3 NC1=C2C=NN3CC23C(O)C2CN12 CC1(C)NCC1C1=CNC(=N)C1=N C=C(C)C(=O)C12NC1(C)CN=C2N C=CC12CN=CNN=CC(=CO1)C2 CC12C=C3C(=N1)N(O)C(=O)C3(N)C2 CC12CC34C(N)CC1C3C2C1CN14 N=C1N=CN=C(N)C1(CO)CC=O CC1C2=COCC34CC(NC13)C2N4 C=Cc1cn2[nH]c(N)cn2c1=NC CC=NNC1=CC=NC(C)C(N)=C1 Cc1[nH]c(C#N)cc2nnnc1-2 CN=C1N=C2OC=CN=C2C1=NO CC12CC3C(=O)NC(=CO1)C2C3O CCC1=C2NN=CCC2(C=O)N=C1 CC(N)=NN=C1NC(C=O)C(C)O1 CC12CC1N1C(=NC3C(O)C31)O2 N=C1NNC2CC3=CCN4C1C2C34 C=C1C=C2C3C4C=CC2(CO)C1N43 NC1=CC=NOC(C2=CNCC2)=N1 C1=CC2N3N=C4CCC=C4C23C1 Nc1onc2c1OC1CC(C1)NN2 CCOc1oc(=N)c(C)c(O)c1C C=CC1CC1C1=CN=CC1=CO O=C1C2COc3csc(n3)CC1C2 CON(C)C(Cc1cnco1)=NN N=C1NCC2CCONC(C=O)=C12 O=C1OC2=NOC3OC4CCC13C24 C=C1C2=COC(COCCC1N)C2 CC1=Cc2nc(c(N)[nH]2)C#CCC1 C=C1C2=NC(C)C=CC#CC1CN2 CC1CC2C3(C)C4OC(OC43)C12O CCCC1CON=C2N=NON=C21 Cn1c2cnc1NCCC1CN2C1 CC1(C)Cc2[nH]ncc2C(N)=C1N C=C1CC2C(N)C3C4=NOC2(O4)C13 CCC1=CC2=CC3C(CC2=C1)N3C OC1C2C#CC=NNC3C(N2)C13O NC12CCC(O)C3=CC4C(C31)N4C2 C1OCC2=NOCC3CON=C1N23 CC1=C2CNC3CC4(CCC3C14)O2 C=CCNC1=NNC2=CC=NC21C CC1=COC2=CC3(C)C=C2C1(C)C3 COC(=CC#N)C1=CN=NC=NN1 CN=C1CC2CCC2(O)C1=CNN OC=C1N=CC=C1NN1C=NCC1 ON=C1C=CN=C2OCOC=C2O1 ON=CN1C2CC3=CCC2C2C3C21 CCCC1=CNN(C)C=NC1=NN C1#Cc2scc3c2CCC3OCC1 CC1(C2C3C4CC(C4N)N32)CCO1 NC12C=CCC1C13CCCC1(C2)C3 C=CC(=C)C(C=NC)=C(C)NO NC(=NO)C12CC3NC(C1=O)C3O2 NN=C1OC(OC2CC2)C=CN1N C=CC12N=C(N)C3C(C(=O)C31)C2C CCCC1N2NC(=O)C3=CNCC312 C=CC(C)C1=NC=CC(CO)=NO1 CC12CN1Nc1cc(O)c(Cl)cc12 O=C1C=NOCOC=C2C=NC=C12 CC1(C#N)C2C1N1CCN2CC1 CC1CN=CC(=CNO)C(C)C1 C=C1OC2C#CC(C)NC=NC1=C2 COC1(C)C(=O)N2N=CN=C(N)C21 CC1C2C=C3C(O)COC2C2C3N12 C=CNC1=NNC(C)=CC(C)=N1 C1=CC2C3CC(CC24NC4CC1)N3 C=CC1(CC)CN=CC=C(C)NO1 CC12C=NNC3=NC(CO1)CC3C2 CC1NC(C#CC(=N)N=CN)C1=O C=NNC1=CC2=NC13CNC2C3O ON=C1C2NC34C=C(OC3)C2NC14 CC(C)(C)C1=NC2=CNSC2=NN1 O=S1(=O)CCON2C(NO)=NCC21 C=COc1c[nH]c(=O)c(=N)c(C)c1 C=CCC12CC3CN(O)C(=NO1)C32 CC1=CC2=CC3C4N3CC(N)C24O1 CC(C=CNCC(=N)N1CC1)=NO N=C1C=C(C2(O)C3CCCC32)C=N1 CN1C2C3CCC4=CC(CO4)(O3)C21 C=C1C2=COC3(CN)CC1(C)C=C23 Oc1nc2[nH]c1CCCNC=NO2 CC1N=CC(CO)=C(NO)C1(C)O O=CONC1=Cc2[nH]ncc2NC1 CC#CC=CC(N)=NNC(=O)CC C=CC1=C(CNC(C)=O)C(N)=NC1 C#CC1=C2C(=NS(=O)(=O)N2N)N=C1 N=c1cc(O)c2c(oc1=O)CC=C2 CCCC(N)=C(C)C(C=NN)=NN N=C(OC1CCCC1)c1cn[nH]c1 CC1=NNc2cc(Cl)c(s2)CON1 NC1C(CO)C2=CC3NC4C2C4C31 C1=COC2=CC3=NN4CC4C3=C2C1 CC1=C2C3(N)CC(C3N)C2(C)OC1 CC1=NC2=CC(=O)C(C)C2=CC=N1 C=C(C)C=C1N=C(C)c2c[nH]cc21 c1nnncc1C1Nc2cocc21 C=C1OCC2C3(C)C4CC(C4=O)C123 N=C1NNC23C1C2C1CNC2C1C23 CC1=C(N)N=CN(O)C=CC1=NO C#CC=NN=C1N=C2OCOC2=N1 CC12CC3(CC3)C3(CC(=NO3)N1)C2 CC(CO)C12C3CC4=CC(C3)C1C42 NC1CC2C3COC24CC3CC=C14 N#CC1CC2(O)C(N)=NNC12C=O Nc1ccn2sc3cc(O)oc3c12 CN1CC23CC(C=CN=C2N1)CN3 CNC12C(=O)C=C3C4C1N4C(C)C32 CC1=NC=CN=C(N)CS(=O)(=O)N1 NC1=NNCC2(C=O)CC12CO C#CC1=CN=C(C2COC2)C1=CO C1=NC2C(=NN1)NCC1COC2O1 CC1=NCC(C)NNC(C(=N)N)=C1 C1=CC2C3OCC24C(C1)CC1C3N14 C=CC(NC)=C1N=C(C)N=C1NC CN1CC23CN2N=CC=CN=C3N1 CC1C2C3N2C2C4CC(N)C3(O4)C12 CC1(N)CC23CC(N=C1N2)C1OC13 C#CC1=CC23CC4C(O2)C4C(=C1)O3 CN1CC(C)(C)C(NO)=NOC=N1 CC1(C)C(O)CC1(O)C1CNC=N1 CCC1=NSN2C=C(C)C=NN=C12 Cc1cc(N2CC23C=NN=C3)c[nH]1 C=C1OC(=O)C23N=CC=C2NN=C13 C#CC1=CNCC(=C(N)NC)C1=O CN1NC2C(O)(C=O)C23CON=C13 CC1CC2=C3C1=COCC3=NNC2 CCN=C1C=CCC(N)C1=CNO NC1C=C2C=CCc3ncc(n32)C1 CC1=C2CCC3NC(C1=NO)C23N C1=CC2(C=C1)CC1(C=CCNC1)O2 CCC1N=CC2=C(C=O)NNC21 OC12CC=CC3=CC1C1C3=COC12 Nc1c(O)cc2n1ON1CCN=C21 C=C(NC=CC#N)N(C=O)CC C=CC12CC3C=CC(=CO1)C32C CCC=C1C2N=C(N)C1N(N)C2=O CCC1CC(C2=CN=CON=C2)N1 C=CC12CC1NN=C1C(N)=CON12 Nc1cc2c(c3c1C(O)C3=O)OC2 CC1C#CCC2NC3C(C=CC23)N1 CC(=CC=O)n1c(N=O)c[nH]c1=N CC1=C2C(=O)N3CC3C=C2C=N1 COC(=N)C=C1N=C(C)NS1(=O)=O O=[N+]([O-])c1coc2nncc-2c1O C=CC1=C(N=NC)C(C)(C)NN1 CCc1cc(=Nc2ncsn2)o[nH]1 N=C1NNC=NC=C1n1cccc1 NC1=NNC2(CO)C3NC(=O)C2C13 Cc1cc2c(=NO)nc(N)oc2s1 CCC1(C=C2N=CNC(=S)N2)CC1 CC=Cc1[nH]c(=N)n2c1C(N)=CC2 Nn1cnc(=NC2C3C=CC2O3)s1 CNCC1=C2C(=O)NC=C2N=N1 CCC1=C(C)N=NC(COC)=NN1 CC1(C#CC#N)N=Nc2[nH]ccc21 OCC1=NN=C2C=C(O)OC=C2O1 CC1C2NCC13C1C4CC3(C)C2N41 NC1=CN2CC3(CCC3)N=C2O1 CC12COC3=C(C=O)C1CC1C3N12 CCN=C1C(CN)N2CC(C2)N1O CC1=C2COC3(CC(=NO)C1C3)O2 OC12CC3C=CC4(OCC1O4)C32 C1=NC2C(=NN1)COC1=C2OCC1 NC1=CC(C=NO)=NOS(=O)(=O)C1 N#CC1=C2CC=NN=C2N=CC=C1 CC1CC12N1CC3CC2(N)C=CC31 CC(=N)C1=C(C=O)C=CNN=C1 CC1=C2CNN=C2N2CCCON12 C=C1C=C2CCC3C(C)(C#N)C23O1 C=CC1=NC(=O)C2=CC(NC)C=C21 Cc1c[nH]c2c1OCC(O)=C2CO CC1OC23COC1=CC(CO2)C3=O O=CC=CC1CON2C1CS2(=O)=O CC1=C2COC3(C)CC1(C=O)NC23 C#CC1=C(C)C=C2C1=CN=C2NO COC12CC3(C)C=CC(=CO1)C2N3 CC1C(=NO)NC2=C1N=CON=C2 C=C(CN1CC1)c1c[nH]c(N=N)c1 C1=CC2=NN3C4CC(C4)C3CC2=C1 CC(O)C12NC(=O)C1(C)CN=C2N CC12C=CC=C3OC=C(OC1)C3N2 C1=CC2OC1C21OC2OC3CC2C31 CC1N(O)C2=NNC3CC1(C=O)C23 NN=C(NN)C1C2C=CC=CC1N2 CNC=Nc1coc2c1ONC=N2 OCCCC1CN=Nc2[nH]cnc21 CC(C)=CCN1OC=NC=NC1=N NC(=NC(C=O)C=O)C1(O)CC1 CC=CC1=NOC=NC(N2CC2)=N1 NNC=NC1=CC2OC=CC=C2O1 CC1CC2C3C1=CCN3C1CC21O CN=CN1Cc2c1ncc1c2CN1 CC1=C2NC(=O)C=C2C(O)C=NN1 CC1(CC(=O)O)CC1C(=N)N=CN O=C1COC2C3=COC=NC3=NC12 NC12C(=O)NC3=CC1CC1NC3C12 NC1=NNC2C=COC(=O)C2C1N C#CCC1CC2=C(NC=N1)OCO2 NC12CC3C4=NNC(=O)C4C1N3C2 CC12C=CC3=C1CN1CC2(N)C1C3 CC1=C2C3C=CC(N)C2(C)CC1C3 C1=NOC2C3C4C1NC(C43)C21CO1 CC1CC2=C(CCO)NSC2=NN1 CNCC1C(N)C2=NOC3CN1C23 CC12C(O)C3C4C3N1C2C(=O)N4N COC1CNC2C(N)=NCC(=O)C12 CC1=C(N2CC2C)C(=CO)N=C1 C=C1C2N=C3NC2C2C1C3C1CN12 CCc1c(Cl)c(=O)n2cnn(C)n12 ON=COC=CCCc1nnc[nH]1 C#CC12CCC3=C1OC(O3)S2(=O)=O CCNC1C(N)=NN2CC(=O)C12 CS(=O)(=O)N1CC(C(=N)N=CN)C1 CC12CC(N)C3=NC(=N)C=C3C1O2 NC12CNC3C4(O)CN(C4)C31C2O O=CC12CC1C1=CC3CCN3C1=N2 COC(N=CN)=C1CNC(=O)C1 CCN=C1CN=CC=C(C#N)NN1 NC=C1C=CC=CCC2CC1=NN2 CC1CC2N=C(N)C3N1C23CC=O CNC=NNCC=C(C=NO)OC Cc1occ2sc(=NC(=N)N)[nH]c12 CC12C=CC3=C1C(O)C1C2OC31C C=NN=C1NC=NC(=C)N1C=CC C=Cc1csn2c(O)c(N)c(=N)n12 CNC1=NC(=COC)OC(=O)C=C1 NC1C=C2CNN=CN3CC3C1O2 N=C1NC23C4CC(O4)C2(CO1)C3O CC=C1C=NC(=O)C(CO)=CO1 N=C(C=CCCN)N=C(N)C(=O)O N#CC1C2C3CCC24CN1CC3N4 NC1=NNC2(CC(=O)O)CC12CO NC1C2C=C3CC(CCCN2)OC31 C=C1NC(=O)C(CC(N)=NO)=CO1 CCC#CCC1=C(C)NN=CN=C1 CC1=CCNCCN2CCN=C1N2 CN1C=NC=CC(C2=NCCN2)=N1 CNC(C)=NC1=NOC2C(N)C12O C=C1C2=NC=NOCCC1C(=N)N2 C=CC1(C)C(N=NC)=CNN1C CC=CCC1=C(NN)C2CC2N=C1 CC1C2NC3C4N=C2N(C=N)C4C13 C=C1C(O)C23C=C(NC2=O)C1(C)C3 CN=C1CCON2C(C)=CSC2=N1 CC(O)Cc1cc(CN)[nH]c1N=O CC1=CC2(C#N)NNC=NC=C2O1 N#CC1(OC(C2CC2)C2CC2)CC1 Cc1sccc1C1=NCC(NN)=C1 NC1=NNC2(CO)C3C(=O)CCC132 NCC=C1CON=C2ON(O)C=C12 C=CN=C1C#CCCNC(=O)ON1 CN=CC=CNOCON=CCN C=CC(O)C(O)C(=C)C1CNC=N1 C#CCC1=NOC(=N)N=C(C#N)O1 C1#CC2(COC2)N2CC2COC=C1 C=C1CCC(N)=NC1CC(=O)NN N=C1C2=COCOC=CN1CCO2 CC(N)=NNC1(C(C)C(N)=O)CC1 O=CCC12CC3C4C1=CC(=O)C2N34 CC=CC(N)Cn1[nH]c(=O)c(=O)o1 C#CCC(C=O)=C1N=CC=CO1 N=CC=CNNc1nocc1C=O CNNC1=NC=CC(CN)N(C)C1 NC=NC1=CC(C(=O)O)=CNN=C1 CC#CCC(NC(C)=O)C(N)=NC C=CCn1sn2ccc(Cl)c2c1=N NC12CC(O)C3C(C1)N(NC=O)C32 CNC1C2C(C)CC34NC3COC124 OC12CN3CCCN(C1)C1C3C12O NC12C3C(CO)C4C3OCC1C42N N=C1CC2NC(=CC=O)OC=C2N1 CC(=O)CCN1C=CC(N)=NCC1 NC1CNC1c1cc(N=O)c[nH]1 N#CC12NN=C3CC(C1=O)C(O)C32 C=C1CNN=C2C(O)=C(N)SN2C1 C=C(C)OC1=CCN2C=NN=CN12 C1=CC23C=C4CC(CN2)C3N2C1C42 CC1CCC(=O)ONc2cnn1n2 N=C1N=C2CCCC#CC(O)C1=N2 C=CCCN=C1NN=C(C)N=CO1 CC12CCC34CC3CNC14C(=O)O2 C=CC12CC1C(N)=NC2C(C)C=O C=CN=C1N=C(N)C(=O)C1CCO C#CCC1CNC(NC=CCN)=N1 NC1=NCC2C3NC(C1O)C2C3=O C=CC=C1CCC2=C1C(=CO)N=C2 CC(C)N1NC(=O)C2=NC(=O)CN21 O=[N+]([O-])c1c(O)ncc2c1CC2O NC1=NC2CC3C(=O)C1C2CC3O O=C1C2C3=CC4CC4C14CN2CC34 CC1CN1CC12CC(C1)C(NN)=N2 C=CNC(CC1CC1C1CN1)=NC CC12CN(C=N)OC3CC(C=C31)O2 COC12C3C(=O)CN(CC1(C)O)C32 CNC=NC=C1OC2CC1(NC)C2 NC(=O)C1N=CC2=CNN=COC21 CCN=C(C#N)C(C=O)=CNOC C=CN=C1CC=CN(C(C)=NO)N1 CC(C#N)NC1=NC=C2N=CNC21 C1=C2C3CC3C3NC(COC1)CC23 C1=C2CCC13C1CC1C1C(CN13)O2 C#CC1C2OCC34CC3C(C)OC124 C=CC1CC(C(N)=NO)C(=O)NN1 CN1CC23CC2COC=CN3C1=S CN1NC=C(C=O)N(C2CC2)C1=N C=C1C(N=C(CC)NC)=CC2OC12 CC(N)=NNC1(C=O)CC1C(C)O C=C1CC2NC23c2nsnc2OC13 C#CC(O)=Cc1cscc1OC=O COC(C=C(C=O)N=CN)OC COC12CC3C(C)N=C(NC1=N)C32 C=C1CC23NC=NC(C=C2O1)C3N N=c1sc2cn1C=NC(=O)C#CC2 C1=CC2=NCC3OC23CCC=NN1 C=C1C(C)C2CNC1(C=O)C(N)=N2 CC12CN=CNC3=COC(C3)C1N2 COC1CN=C(C)C(CN)=C1NO C=C(O)c1c(CC)[nH][nH]c1=O CC1CN=CC=C(CN)NN=CN1 CN=CC=CNOCCN CCC(C)N1CC2=NC(=O)OC2=N1 CC1C=COC12CNC=NC=NO2 C#CC(C)(O)c1n[nH]cc1N=O NC=NC1C(=O)Nc2cc(O)sc21 NC=NC1=NCC2CC2N(O)C1=O CC1C2(C)C=C3C(=CC(=O)C31O)C2 OC1CC#CC2CC3CC1C3CO2 C#CCC1(C)CCN=CC=CNO1 C=CC(C)(C=C)N=Nc1cn[nH]c1 CC1CNN=C2C=CC(N)=CN2N1 CC1=CNC2C3COCC32CC1=O C=CC12OC(=O)C1(C)CN=C2N Cn1cc2cc1C1CC1C=CC=C2 Cc1cc(C(C)C2CC2)[nH]c1N=N CN=NC1=C(NN)C2C3CCN2C13 N=C1CN=C(c2[nH]cc3c2NC3)N1 C#CC1=NC=C(CC)C(NC)=NO1 NC1=NN=CC2(CC2O)CS1(=O)=O CC(C)C1CC1c1n[nH]nnc1=N CC(=N)C1=CNOS(=O)(=O)CC1 CC12COC13CC1OC1C3=CC2N N#CCC1NN=CN=C2ONC=C21 C=C(N)c1c(Cl)cc2n1NC(=O)C2 O=C1CC2C#CCNC3C(CO2)C13 N=c1c2csn1CC(O)CNC=N2 Cc1c(O)c(CN)nncc1=N CS(=O)(=O)C#CCCC(=N)N=CN COC12CC(C)C3C4=CC1C(O4)C32 ON=CCC12C3=COC1CN2CC3 C#CC1(N=C2C=CC=N2)CCCC1 CC=CC1=NC(=O)C(N(C)CC)=C1 C=C1CC2COC3(C1)C2=COC3C CCCN1CC=C2N=C(NC)C=C21 COC1OC2=CCC#CCOC1=C2 CCC1=NC(=NN)C=CCCN1N C=C(C)C12CCC3=C1CC(C3)N2C CCCCN=NC=C(NN)C1CO1 O=C1C#CC=NN=C2NC=C1N2 CN1CC23C=CC=C(C2)C2(N)C1C32 Cc1c2c[nH]c1C#CC1CN(C2)C1 CC1=C(NCCO)N2CCN=C2S1 C=CNC(CNCC(C)(C)C)=NN C#CCC1N=NC2=CNOC2C1O CCN1CC=CN=C(COC=O)N1 CNC(C)(C(C)=NN)C(C)C=NN C=NN1C=C(C)NC(=O)C=C1CO CC1=C(NC=N)NC(=CC#N)C1C CC1CNc2csc3c2C1=CCC3 CC1=C(NN)C(C)C2(CC2)NC1=N CN=CC(C#N)=C1NNCC1(C)C CC(N)c1cc2c(o1)C=NC=NN2 CONc1nn2c(c1C=NO)CC2 C=C1N=C(NOC(N)=O)C2(C)NC12 NN1C2=CC3CNC3C2=NS1(=O)=O C=C(COC1=NN=C(C)NN1)OC OCCCCC1C=C2C=CN=C2N1 NC1=NC(C=O)=NC2CC2(O)C=C1 NC=NN(C1CC1)C1C(O)C1C=O CCC1=C2C=C(C)C13C=CC2(C)O3 CNN1C(=O)CC12C(C)=NN=C2C C=C1N=C(NN2C=NCC2)C=C1N Nc1oc2cc1OC1CC1OC=C2 CNC1(C2=CC3CCC=C3O2)CC1 C=NN=C(N)CCOC(=O)CO O=C1CCNN1C1CN2N=CCC12 CC1(C2(NC=N)CC2)ON=CNO1 CCN1N=C(C)N=CC2=CCN=C21 COC12OC3=NOC1C1C=C3OC12 C=C(C=CCC)c1[nH]nnc1NN C#CC(=C)C(=C)NC(C=CN)=NC OCC12CCC3(C4CCC3N4)C1N2 CC1OC=CC2=NC(=O)N=C2CO1 N#CC(NO)=C1NC(=O)C=C1N CC1CC(O)C(NOCC=NO)=N1 CN=CN=C1CC=C(C)N=C(C)N1 N#CC1=NN=CC23NC=NOC2C13 Cc1c[nH]sc1=Nc1sncc1N CC1=CC(C=O)CC12C=CC(N)=N2 CC=Nn1cc(C(C)C)c(NN)n1 N=C1CN2CC=CCCOC(=N2)N1 CC(=N)N=C1N=CC(N)=C1C1CN1 CN=NC(C)=CNNC1C=CC=C1 CCC1(C23NC(=N)OC2C3C)CC1 C=C1C(N)=NNC(=O)C(N)C12CO2 NCC12CC1(O)C1CCC(CC1)O2 CCC1(CCN2C=NOC=N2)CC1 CC(N)C1=C2C=CC3CC(O1)C23 CC#Cc1cnc(N)c(=N)c(N)c1 N=C1C=CC(C2C(=O)C3CC2O3)=N1 CC1=C2CC(=CN=CNC1)CC2O CC12C3C4CC(CN31)C1C4C12O C=C1CNNC(C=CCC(N)=O)=N1 CC1=CC2=CN(C)CC2=NN1C=N CC1(C)ONC(=O)C2C(N)=NOC21 CC1CN=CN(C)C2C=CC(=C2)C1 NCC12CN1CC1=CC3C=CC12C3 NC(N)=C1C=Nc2csc(O)c2O1 NC=NC12CNC3C(=O)C(O)C1C32 C=CC=CC1c2csnc2NN1C NC(=NO)C12CC(C=C1C(=O)O)N2 CN1C2C#CC(=O)C3CC3OCC21 N=c1ncn2n1CC1=C2C(N)C=C1 CC1=C2C=CC(=CO2)CCCNC1 CC=COC(=CNO)c1nncs1 C=CC=CCC1=CC=NCC=NN1 CNC=NNC1CCC(C)C2NC12 CNCCC1NC=NC(C)=C1OC CCN=NC(C)=C1NN=CC1C#N CC1C(=O)C(N)=NC2=CCC(=N)N21 CCC=CCN=C(C)C=CNN CC1C=CC(NOC2CC2O)=NN1 Nc1cc(NO)c(O)c(=O)cc1Cl CC(C)(C)C(O)C(=O)C(=N)N=CN C#CCC1N=CNC(CC)=NC1=C N=C1Cc2ccnc3c2N1CCN3 CC1(C(=O)O)C2ON=C(N)C21CO NC1CC2N=CC=C(NO)C12O N#CC1CNC2C3(O)C4CC4NC123 CC1(C(C#N)=NN=CN)OCC1=O CCNC1=NC2=C(C1)OCC=C2 COC1CCC12NNC=NC2CO C=CNC1=NOCC=CN=CN1 CC=C(C)N1N=C(N)C(C#N)C1=O CCCC1CC12C1OC3C(O1)C32C C#CC1=C(NC)CN(N(C)C)C1=O O=C1CC2OCC13C2C=CC31CC1 O=c1-c2cccn[nH]c(=O)c-1nc2 N=c1-c2ccocn[nH]cc-1oc2 O=c1c#cc2nc(=O)c(cco1)=c-2 Cc1ccc2c(=O)nc(cnn1)-n=2 CC12CC3C4C5CC36C(C54)N1CC62 Cn1cc2ccnc3ccnc1-n-2-3 c1[nH]nc2[nH]c3c(cc4n3CC4)c12 Cc1nc2ncnccc(=O)c1=c-2 C1C2OC34OCC5N6C(CC53C12)C64 C1C2C3C4CC56CC(C(C5)N43)N1C26 CC1=Nc2nnccc(C)oc1n2 C1C2C3C4C1N1C5C6CC1(C23)C4C65 CN1SC2=NN3CC3C2=C1[N+](=O)[O-] CC12CC(c3c4c(cn31)OC4)C2N C1OC2C3OC4C5C6C3CC1(C24)C65 C1NC2C3C4OC5C6OC1(C54)C2C63 COc1cnc2c(=N)ncc=2oc1 C1=c2c(nc3n2N2CC2CN=3)OC1 C1C2C3CC4C5OC6C5CC3C46C12 C1C2C3CN4C5C6NCC(C13)(C65)C24 NC12C3C1C1(CO)C4C5C(C2N41)N53 C1=CC23C4CN5C(C6C4C(C1)C62)C53 C1=NN=C2C3C4C5C6C(CC12C65)N34 CC12C3C4C5CN(C51)C41CN3CC21 CC12C3C4CN5C(C6CC4N1C62)C35 NC12CC34CNC5C6C(C1C2C53)N64 N=Cc1c[nH]nc2c(co1)CON2 C#CC(C)(C)N1Sc2n[nH]nc2S1 O=C1NC(=CO)C(=O)C2=C1NC2=O C1=C2C3=NOC45CC3C(CC24)(C5)O1 OC12C3CC4=C5OC(C6C4C61)C2C53 CC1C2C3CCC4OCC5C(N12)C435 C1C2C3C4C5CC6(CC5OC4C36)C12 C1=CC(c2cn[nH]cn[nH]c2)=CC1 N=C1NC2C3(ON=C4OC=CC423)O1 CC12NC3C4C5C(C6C(CC61)N45)C32 CC12Cc3oc(c1c3O)C1OC1C2 C1C2C3OCC45CC3C2C(=NC14)N5 C1C2C3C4NCC5(CN6C3C6C45)N12 CC1(C23CC4N(CC4(N)C2)C3)CC1 OC12CC3C4CC15C=C(C43)C2CC5 Nc1c#cc2cn(ncc1)c(=O)s2 C1NC23C4CN5C(C6OC4C1C62)C53 Cn1[nH]c(=O)[nH]n(C)c2cocc21 C1C2C3=NCC4(CC5OC4C2C15)N3 C1C2NC3C45CNN=C4NOC35C12 CN1CCN=c2[nH]oc(c2=O)=CN1 S=c1[nH]ncoc2c([nH]1)CN1CC21 c1csc(-c2c[nH]nc[nH]cn2)c1 COC1=Nc2c3c([nH]c2=C1)=NCC3 CC12NC3C4NC3C13C=C4C2CC3 C1=CC2C3C4C5C6NC(C54)C6C23C1 NC1C2C3=CC4C5C3C1C5C1C4C21 c1cccn[nH]cncnncc1 N#Cc1cccc2c1=c1nn[nH]c1=2 CC12C3C4=C5CC(C1C5C3O)N2C4 CN1C2C3C4C=CC15C4C3C1C2C15 C1C2C3C4C5CC6(CN6)C1C(C54)N23 C1=C2COCC13OC1(C2)CC3=NO1 Cc1[nH]nc2sccn2oc1C#N C1=CC2(CON=C3N=CSN13)CO2 NC12C3CNC4(CNCC45CC15)C32 N=Cc1c[nH]ncc2c([nH]1)CC=C2 C=c1oc2c(O)c(N)nc1c2Cl NC12C3C1C1OCCC14C3CNC24 C1=C2C3C4NCC15C(C43)C2N1CC15 Oc1c2cc[nH][nH]ccc1[nH]n2 NC12C3=CC4COC3C43CC1OC23 C1CC2OC3C4=NC2C3(CNN4)O1 C1=CCC(C2CN3ON=CC3=N2)=C1 Cn1cnnc2c(Cl)cocc-2o1 NC12C3=COC45C3CC1C4OCC25 N=C1C2C3CC4(C2CC2C3C24)N1O C1=NNN2CC3(N=C12)C1CCOC13 C1C2C3NCC45CN2C(CO4)(C5)C13 c1cncc(N=c2cc[nH]nn2)c1 CC1C2C3NC4(C2N)C(O)C3CC14 C1CC2=C(CC(c3nnno3)O2)O1 N=C1N=C2C3C4C1CC(C34)C1CN21 Oc1c[nH]c2c(c1)oc1nnnc12 C=C1C2(CC3NCC4OC134)NC2C CC1C2c3c4c(cn3C=NN12)NC4 C=C1C2CC34C5CN(C(C25)C13)C4C Cn1nc2c(c3cnnc1-3)C(=O)O2 O=c1cnnc2scc(cco1)-s-2 C1NC2C3C4OC15C1NC(C3C41)C25 C=C1CC2C(N=C3N=NON32)C1O CC1OC2C3C4N5C4(C)C=CC15C23 C1=CNNc2cc(ccn2)CN=N1 C1CN2NC3C4C5NC5C(C2=N1)C34 CC1C2CC1OC1=CSC(=NO2)N1 N=c1nc2nc([nH]1)occcco2 c1nc2c3c([nH]nnc1-3)CC1OC21 CN1C2C3C4C5C6C(C6N34)C2C51C CCC12C3CN4C5C(C53O)C1(O)C42 C1=C2COC3C4C1C1=CCC4C3C21 CNCC1=CC(=C(C)O)C(=O)N=N1 C1C2NC3C4C5C6OC5C(C24)N1C36 C#Cc1nnc2occ(cc[nH]1)-o-2 O=c1c#ccn[nH]c2ncc1CO2 C1=CN2C(=NN3C2=NCC32CC2)S1 C1=NOC2CC3C4NCC5C(N35)C124 CN=C1C2C3C=C(C4C(O3)C24)N1O CC12C3C=CC(c4coc(=O)n41)C32 CC1(C)C2=C3CC4CC(C)(C24)C1C3 CCC12C3OC45CN6C(C6C41)C5C32 OC12C3CC45OC=C3C4(O)C1CC25 C=CC1=Nn2c(c3n(c2=N)CC3)C1 O=C1C2OC3C4C2C2C4(O)C=CC132 O=c1[nH]sc2c(O)c[nH][nH]ccc12 CC12C3OCC(c4nsc(=O)n41)C32 C1C2NC1C1C3=C(OCC32)C2NC21 CC1=CC(C)NN=C2OC(=NS2)C1 CN=C1OC(=O)C(=CO)C2=C1NC2 CC12C3C4C5C4C(C)(C31)C1(C)C2N51 Cn1nc2sn3c(c-2c1=O)C(O)C3 O=C1CC=C2C34CCC12C(=NC3)N4 C1=NN2CC1=CNC1CC3C(C1)C32 CC12NC3C4OCC35NCC(C41)C25 OC12C3NC4C5C6C(CN5C31)N6C42 C1=CC23C4C=C(C5CC52)C3C2C1C24 C1CC23CC4CC5C6C4C2C1C6N53 C=C1C23CC4(C)C(=CO2)C3CC14C C1CC2C3CC45CCC1C24OC3O5 CC1C2N3C4C5C(C1C43CN)C52N NC12C3C4C5C6C3N6C1C2(O)CN54 CN=c1ccc(=O)c2cc[nH][nH]c1=2 CCC12C3C4C(C5C(N43)C51N)N2C CC12C3C4NCCC45C(CCC51)N32 C1=CC2C3(C=C4CC2(CO4)OC3)C1 C1CC2CN2N=C2NC(=NS2)CO1 C=C1C2=CC3C4C5N4CC3C15CO2 C#CC1=C2C=NOCON=C(S1)S2 CC1=CC2(CO)NC3C=C(C1)C2=C3 CC1(N2OC(=CO)C(=N)C2=O)CC1 CC1(C)CN2C3=C(CC21)C(=O)N=C3 CC1C(O)C2NN3ON=CC3=NC12 CCC1CN2C(=NN1)SC(O)=C2O CC1C2CC1NN1NC=C(N)C1=N2 C1=NN=C2OCC=C3C2N1N1CC31 OC12C3C4CC5C1C1(O)C(C32)C1N45 CC12OCC34NC5C(C=C13)C5C4O2 C=C1C2C3C4OC5C2C2C1C3C4C52 C1CCN2CC3CC(CC2=NC1)O3 C1NCC23NCC45CN4CCC25C13 OCC1=C2CCN2C2=NCC=CN21 C1CC23C4COC2C2C5C4C5N3C12 NC1=C2CC3(CCC(O)(C3)C2=O)O1 C#CC1Cn2sc3nnc(C)c-3c21 C1CC2CC1NC1=NNOC1=NO2 Cc1n[nH]cnc2c([nH]1)CCNC2 Cn1sc2cc1n[nH]c(=O)cco2 CC1N=CN=C2OC=C(Cl)C(Cl)=C21 C1=NOC2C3N=C4CC2(CC13)ON4 CC1=CC2=C3C(O)C(C)(CC13C)O2 C1C2C1C1(Nc3n[nH]nc31)C1CN21 NC12C=CC3=C1C(=NN=C2)N=CO3 C=C1CC2CN3C4CC15NC4C3C25 C(=C1CN=C2C3CC(C3)N12)C1CN1 C1=C2CC3C4(C1)CCC(C24)C31CO1 ClC1=C2CC3CN3CCN=C1SN2 CC1(C)ON=C2C1=CNC(N)=C2Cl C1=C2C=C3CC(=CO3)CCC1=CC2 N=C1NC2=C3CCC3=COC2=NO1 C1C2C3C4NC4C4C(C4C34CO4)N12 c1c2noc1CN=C1NC(CO1)C2 C=CC1=CC=CC(=CO)C1=N CC12CN3CC14C=C(C32)N(O)C4=N O=C1c2cnnc[nH][nH]c2C2OC12 O=c1cc2c3ccnc-3c[nH]n2[nH]1 C=C1C2C(C)C3C(=N)N=C(C23)N1C C1=C2CN3CC(CNN=C(N1)N2)C3 Cc1nnc2cnc(cc(=O)o1)[nH]2 O=C1NC2=C3CCN3N=CC2=NO1 O=CC(C=O)=c1nc2c([nH]1)=CNO2 CC12C3C4=NCC1C(C=O)(CN32)N4 O=c1oc2n3c1=NNCC3=CCC=2 C1C2CN3CC45CC(=NN4)C1C5C23 CC12CC1C1=C(C=N2)C2CC2NN1 CC1=C2C3C(CC3C3(C=O)OC23)O1 O=C1C2NC3C4N=C5CC13C(N5)C24 O=S1(=O)C=c2c(oc3nonc23)=N1 C1=C2CC34CC5C(C(O2)C2C5N23)C14 O=C1SNC2=NC(=O)C3(CC3)N12 O=CC1(O)C2CC34CC2C(=NC31)N4 CC1=C2C3C(C4C(O)C24NC1)N3C CC(=Cc1c2n(sc1=O)CC2)CO CC1=CC(=C2CC(C)=NN2)C=NC1 O=CC=CN1CC2=C(O)NSC2=N1 C#CC12CC3=C(O1)C1(CC3=NO1)C2 CC12C3=CCC1NC1=NC2C(O3)O1 COC12CC3(O)C=C(C1=C3)C1CC12 CC12N=C3C4CC1C(CC2N3N)N4 CC12C3CN4C3C3C1C1CCC42C13 C1=CC2N=C3COC4C1NCC24N3 C1=CC2C3=CC=C2C1CNN=CC3 ONC1=C(O)c2cn(cc2O)CC1 C1=C2OC34CN5CC5C1(C3)C1C2C14 CC12CC3C4(C)CC3(N)C1=C4CN2 OC1C2(O)C3C2N2CC4CCC12C43 C1CNc2noc3c(nsc23)CN1 CC12C(O)C3C4C5C(C6C4N61)N5C32 CC12Cn3c(nc4sncc43)C1N2 C1=NNC2C3OC4OCC5OC54C123 C1OC2C3C1OC14OC(CC21)CC34 C#CC1=CONC(C(=O)O)=C1N=O CC12C3C=C4CC3C3(N)C4NC1C23 C1C2C3NC1C14C2NC(C2NC21)C34 NC1C2C3C4C5C1C1(N)C(C1N45)N23 OC1C2C3N=C4CC1(COC32)ON4 C1C2C3OC4C5OC5C5C4C3N1C25 CC1C2OC34CC3(ON=C4NN)C12 CC1=C2OCC=CCN=C(S2)N1C O=Cc1cc2cccc[nH]oc1s2 CC12CC3C4CCC5(C=C1C3N45)C2 C1CC2=NC(=NCC3(CC3)N1)SN2 C1=CC2OC3(CC24C=NN=C3N4)O1 N=c1onc[nH]cc2n1OC1CC21 N=C1NC2=COC3C2(CS3(=O)=O)O1 C1=C2NOC1=NOCC1=NOC2C1 C1=C2C3CC(CC14OC1CC4C21)O3 CC(N)C12CN3C4CC(=C(C4)C31)O2 OC12CC3C4C1C=CC21C3CCC41 NC1C2=C3OC4C1C1C(CC3C41)O2 C1OC2CC34N=C5NC3C1C2C4N5 C1C2OCC3OC4C1N=C2NCC34 C1NC2c3nc(N4CC4)[nH]c3OC12 c1c2nnn1OCC1C3OC2OC13 OCc1oc2cc[nH]nc[nH]c1n2 CC12CN3C4C=C(C(=O)N1)C(=C4)C32 C1=NC23C=C(N1)C(C1CN1)(C2)NC3 COc1nnc2cc(cc[nH]1)N=C2 C1C2C3CC1C14CNC5C(C21)N3C54 Cc1cn(O)nc2n(C)c(=O)nc1-2 C1=CC23C4=CCC5CN(C45)C2C3C1 C1=CC2=NN=C3NCC(CC1=N2)N3 C=CC=C1CONC(=CN=NC)C1 C1C2C3OC1C14CN5CC(C5C31)N24 C=CC12CN=C3C(=NNN3N)C1C2 OCC12NC=C3C4=NC(C1CN4)C32 CCOc1nc(=O)c2c(C)[nH][nH]n1-2 C1=C2C34CCC5C3N5C2(CC1)CO4 CC12C=C3C(=C1)C1(CC3C3NC31)C2 C1C2NC34COC5(COC3(C5)C12)C4 CN1C=NN=C2C=C3OCC3=CN21 C1C2C3CC1C14CCN5C(C2C51)C34 C=NNC=C1NC(=O)C(N=O)=C1C CN1SC2=C(Cl)C1=NOCCCO2 c1cn2ccc(c2)c2nc(co2)o1 CC1=C2C=CC13C1C(NC3(C)C)C21 CN1CC2=C(Cl)C(=O)N=COC2=N1 C1CN2C3C1C1C3C3C4OCC12C43 C1=CC23CC4(C=C1)CCC(=C4O2)O3 CCNCc1cnnc(C)[nH][nH]c1 CC1=C2C3C4OC(O1)(C2C4=O)C3O C1=CC2C3NN4CCN=C4C23OC1 C1C2C3OC45ON=C3C4C2N2C1C25 CNC12CC3C4=C(CC31)C2(N)C=C4 C1=NOC=NC(Oc2ncc[nH]2)=C1 NC12CCC3=C1C1C4C(C42)N2C3C12 CC12OC1C1C3CC24CC(=NC14)N3 O=C1NNN2Cc3ccoc3N=C12 CC1(C)C2C3N1CC1C(N12)C31CN1 C1=NN(C23C4CNC2C3CN4)CC1 O=c1cc[nH]c2cocnc-2no1 COC1=c2c(cc3n2CCN=3)OC1 C1OC2C3CC4C(O3)C3CC42C1N3 C1CCC2=C(C3CC3)NOC2=NC1 CC1CN=C2N3C(=O)C(O)C3=NN21 CC1=CC2(N)CC3(C)CC2=C1C3N O=CC12C=C3C(OC4CN(C1)C34)O2 CC=C1C2N=C3N(C)C4CC13OC24 C=c1nc(NC)c2c(n1)C(=N)NC=2 C=C1C=C2C3C4OCC15C2OC3C45 OC1=CC2=NCC3(CC3)NN2N1O C=c1[nH]c2c(c(N)c1=O)N=CN=2 CC12C3C(O)(C(O)CC31N)C1CN12 NC=Nc1cc(=CO)[nH]c1=CC=O NC1=C2CC3=CNC(=O)C3=C2NN1 C1=NCC2=C1C1C3CCOC31ON2 CC12CCc3cc(Cl)c(n31)CC2O CCn1cc2c(c1=CO)=NCC2 OC1C2=NOC1C1CC(C1)NC=C2 O=C(C1=C2CCN=C2ON1)C1CO1 CC12CN=C3CC(C#CC1C2)ON3 NC1C=C2C3=NOC24C=CC31C=C4 C1=CC23CC14OCC21CC(CC41)N3 C1CC2=NNCC3=NCCN(C1)N32 C1C2C3C4CC5N3C2C(C14)C51CO1 CC1(O)C2C3C4C5=CCC(C5)(C21)N43 c1cn2ccc(n2)oc2cc1c[nH]2 OC12C3=CCC1=CCC=C2CC=C3 C1NCC23CCC4(COC1=C24)NC3 CC12C(O)C1N=C1N(N)C(O)=CN12 CNN1C2=NC3CC3C2=C(C)N1N C1N=C2NC3C4C5CC3(N2)C1C4N5 C=C1CC=NN=c2nc(c(=C)[nH]2)C1 c1cc2c(o1)Cc1c3c(cn1-2)CN3 c1c2c(n3c1C1(CO3)CO1)NCC2 C1=CC23OC4CC25OC4C3=CC=C15 CC1=CC(N)C2(C)NC3CC1=C2C3 CC1ON=C2CN3C4C2=CNC4C13 C=C1C=C2C3CC4CN=C(C43)N2C1 CN1C2CC3=C(CN(C)N3C=O)C21 C=C1COCc2nc3c[nH][nH]c-3c21 CC12C3=C(NS1(=O)=O)OC(C3)C2N C=C1OC23OC1=C1C4CC(CC12)C43 COc1c[nH]ccn(C=O)[nH]c1=N CC1(C)N=C2C3C1OC3(C)C1CN21 CCN=NC=c1cc(N)oc1=CO C1=CC2CC2(N=c2cn[nH]nn2)C1 O=C1C2=C3NCC14CC2(CO3)CO4 NC1=C2OC(CNCC#CC2=O)C1 CC1C2CC3N=C4NC(C2O)C31N4 O=C(Cc1c2c(cn1O)CC2)NO Cc1nnc2nccc3c2c1N=C3 NC1C2Nc3c(occ(Cl)c3=O)C12 N=C1C=CC(Cl)=CC2=NCC(=N)N12 C1OC2=NC3C(CC4CC(N2)C43)O1 O=C1OCc2nc3ocncc-3c21 O=C1CCN=c2nnc(=CO)nc21 CC=CON1SC=C2CC(=O)N=C21 CC12C3CCC45C(CCN14)C2NC35 C1C2OC3=NNCC4(CC2N1C4)N3 NC12CC=C3CC4OC1C3(CC2)O4 C1C2C3CC4(CC2C(O3)O4)C2CN12 CC1=NNC(=O)C(=CC=CO)C1=N CC12C3=C(CC(C3O)C1O)CC2O CCC1C2N3CC4C(N41)C23CCN CC(=NN)c1nccc#ccn[nH]1 O=CC1=CN=C2NC(=CS2)C#CC1 C1=CC23CC4(C1)CCC(=C4O2)CO3 C1C2=C3CN4C(C2)CC4C2C1NC32 NC1=CC2=NN(CCCCC#C2)C1 O=C1NOC23CC4=C(C2)CC1(C4)C3 O=C1C23C=C4COCC14N(CC2)C3 O=C1C2=NN=C1C1CC(CON2)N1 C=C1C=CC2(C#N)OC3CC2=C1O3 C1C2NC3C4C5C4N1C2C5C31CN1 C1#Cc2oc(c3c2OC3)OCOC1 C1OC12CC1C3c4[nH]nnc4C2C13 C1=CC2C3CN=C4CC(C3)(O1)C2N4 CC12CC3C4=CC5C(N35)C(O)(C1)C42 OC1=C2C=NC(=NCCCNC2)O1 CN1C2C3C2C2(O)CC4NCC12C43 CC(=O)n1c2co[nH]c-2c(O)c1=N OC1C2=NC3CCC4C3C(C14)N2O CC12C3=CC4C5C3C3C1CN3C5C42 C=C1C2(C)C3COC14C1OC(C12)C34 CC1(N)C2N3ON=CC3=NOC21C C1CC23C4CN5C(C4C4CN1C42)C53 NN1SC2=C3C1=NC=NC3COC2 NC1C2CC34CC1C(C2)(C3)OCO4 CC1OC2=NC(=NCC3NC31)C=C2 CC1(C)Cn2c1c1ccsn1c2=O NC12C3N=C(C4OC3C1O4)N1CC12 CC12C=CC34C(CC(NC13)C4N)N2 C1=CC2C3=CCN=CN=CN2C1C3 CCc1nn(C)oc2nc(=O)nc1-2 OC12CC3C=CC(=C4CCC=C41)C32 C=Cc1oc2cc1cc[nH]nc[nH]2 CN1C=NC2=C3C1=CCC3=NOC2 CC12CN3C4C(C5=C(CCO5)C31)C42 CC1C2C3ON4C=NCC24CC13N CC12CC3C(=O)NC(=NN1)C2=C3N C#CC12CC3(N)CC1=C(CO2)C3C CC12CC(C1)C1=NN(O)SC1=NO2 C1=C2CC3CC4C5C(C2)N5CC14C3 CC12CCC34CC5C(=CCC51C3)C42 CN1OC2=C(O)C1=NOCCCN2 O=c1nc2ncn3c2c(o1)CCC3 c1oc2cc1OCOc1cc-2sn1 CC12OC3C1N1C4(C)C3CC2C14C NC1C2C3C=C4OC3C3C2CNC413 OC12CN=C3CC4C(CCC41N3)C2 OC1C2Oc3nnc4c(c3C12)CO4 C#CC12C3=CC4C(C5OC3=CC51)C42 C1=CC2OC3=NOC24C2NC(C12)C34 N#CC1=CC2C3C1=C1CC4C3N4C12 C1=NN=C2CC34CCC5C(N53)C12C4 C=c1cn[nH]ccc2con1c2=N CC1(C(=NCC(O)CN)NO)CC1 COC12CC3C4CC(=C(CN4)O1)C32 OC12C=C3OCC4N=C(C1)NC2C34 N=C1C2CC(C=C3C4CC(C4)N13)C2 C=CC(C=C(CC=CC)NO)=NC OC1Cc2nn(-c3cccs3)nc21 C1=NC2=COC3CN(CC(C2)N1)C3 NC1C2CC1OCC1=CNC(=N2)O1 C(=C1OC=C2C1NC1CC21)C1CO1 C=C1CNCC(NOCC)=C1N=N C1=CC2=CC3(CC4(C=CC3C4)C2)O1 NC1C2OC34CC5C(CO3)N(C52)C14 C1=CC23CC45C=CC(=C1C2O4)C5O3 Cc1c2noc(=O)c-2noc1C=O C1=NC23CN4CC5C2OC5C3(C4)N1 CC12CC3(O)C4C=C(CN1)C(=C4)C23 C1=CC2=CC(=C3C=CC(C3)O1)C=C2 CC1=NC=CCN=C2NC(=CS2)N1 C1=C2CC34CC5C(O3)C5C4=C2CO1 C1=C2C(=CC1)C13CCC2C1=CCN3 N=NC=c1occ2c1=CNC2=O C=C1CN2C3C4C5C(=O)CC1(C32)N54 C=NN1NC=C2C(=C)S(=O)(=O)N=C21 C1=NC23CCC4C(NC42)C(=NC3)N1 N=C1N=C2CC3C4CC1(C3O4)N2N C1=C2C3ONC4=NC2(CC1)C1C4C31 CC12CC(CCN=C3N=NNN31)C2 CC1(N)CC2C3C4CNC3(CN42)C1 CC1C=Cc2c3c[nH]oc-3nc21 OC1C2CC34CC(=NC1C3N2)NN4 NC12C=CC3C4C5C=C(C4C31)C2C5 CCC1NC2C3C4N=C(C13)N(C)C42 C1C2OC3C4C5CC6C1C2C3N6C54 Nc1ccnnc2cc(o1)N=C2 CC12CN=CN3C=C(CO3)C(C1)N2 OC1C2C3=C4C5OC3C5C2(O)C41 ON1CC2C3C=CC4(O)C1=NC2C34 C1C2=NOC3C2C2C4OC(CC14)C32 CC12C3=COC45CC(C1NC34)N2C5 C1NN=C2NC3CC1(N2)C1(CO1)C3 O=c1occ(N=c2cc[nH]cc2)s1 CC1C=Nn2c1c1occn1c2=O NC1Cc2nc1noc(=O)cc[nH]2 C#CCC1=c2[nH]oc(=O)c2=CC1=N O=C1CCC2C3N=C4C=NSN4C123 CN1CCC2(N3OCOC3=N)CC12 C1=CC23OC4COC2(CC(C4)O3)O1 C=C1N=CN=c2c(=O)[nH][nH]c2=C1O N=c1[nH]c2c(s1)SC1=NCCCN12 CCC12C3C4C3N3C(C4C14CN4)C32 C1CC23CC1=C1C4CC(O2)C4CC13 NC1C2Nc3cc4c(n3C12)CNC4 NC1C2N3C4C5NC4C(O)(C13)C52N C1=C2C=C3C(=C2OCO1)C1CC3O1 C1NC2C3C4CN3C3(C4)C1OCC23 CC12CCC3(CNC4(C)CC143)OC2 C1=NOC23CC24OCCC42OC2C13 CC1(O)CC2=NCC3N2C1C3(C)N CC1CC2C3C4=NCC1(C23)N4N CC1=C2NC(=N)C3C(CN4C2C34)O1 CN=C1N=C2C3C1OC3C1C(C)N21 ON1C2=NC3C(CNN=COC2)C31 CC12C3CN4CC5=C3CC1C(C5)C42 OC12C3C4CC5C6OC4C3C6C1C52 O=c1ncoc2c1=C1N=CN=C1C=2 COn1c(=N)[nH]c2c1=CC(=N)C=2C OC12C3C4=CCC15CC(CO5)(O4)C32 C=C1C(O)C2C3N=C4NC13C1C4N21 CC1=C2C3=CC4NC(C24)C1C3CN C1=C2CC=C(COC3CN(C2)C3)O1 CC1=CC(O)c2nc3c[nH][nH]c-3c21 CC1C2C3C4C5C4C2(O)C1C1C3N15 C1=CC2C3C4NC1C2N1CC4=CC31 CC(=CNO)C(=N)CNC(=O)CN CNC1=CC(=O)C2=CC(=CO)NN12 NC12C3OC4(OC31)C2CC1CC14O C1=C2C3C4CC5(CCC1N5)C2CN43 OCC12CCC34ON=C(C5C3N51)C42 NC12CN3C4C5NC1C1C(C32)N1C54 C1=CC2C3CC4C(N3)C3NC24C=C13 C1=C2OC3C4C5CC2(C4CC1)C3N5 C1=C2OC3=C(C4CN(C3)C4)C2CO1 NN1CC23C=CC4(CN=C1C24)NC3 CC12OC1C1CC3C=C4CC32C1O4 NC12CC3=CC1C2CC=NOCO3 CN1C2CC34NCC5=CC3C2CC514 NC1C23CC(CN2)C2C3C(O)C21N CC1=C2CC3C=CCCC1CC2=C3 C=C1C2=CN(OC)OC2=NC1=NO CC1C2C=CC3=CC(=CC1N2)C=C3 C1C2C3=NNCC4(C3)C3NC3C1N24 C#CC=c1cn[nH]c1=CC(=N)C=O C1OC2C3C4C5OC3C1(O5)C1C2N41 C1=NOC23CC14COC=C2C4=NO3 CN1CCC2=CN=CC(Cl)=CC2=N1 CC12CC3C4NC5CC1=CCC52C34 CC12NC3C4=CC1C3(CC2=O)NC4 CC1OC23C=CC4NC(=NC2)C3C41 C1CC23OCC4C5C2=NN=C1C3C45 CC12CC3=C(N)CC(C)(C1)C3=NO2 C1=C2CC(C1)CNCc1coc2c1 OC1C2Cc3oc4c(c3C12)NCC4 C1=NC=C2C(=NNC3CN2C3)O1 COC1=C2C3NC4CN(C24)C1C3N O=C1N=C2NC(=COCCCO2)N1 C=C1C2NC34CC5C(C2C3=C)N5C14 O=C1CC(N=NC=C2C=CON2)C1 C1=C2C3CC4(C1)CC1OC4(C3)OC21 C1#Cc2[nH]ncc2C=NCC=CC1 C1CC23C(CC2C2CCN4C2C43)O1 Oc1cc2[nH]c1N1CC(CC#C2)C1 OC12C=C3C4C5CC3(C1)C(N5)C42O C1#CCOc2[nH]c(c3c2OC3)CC1 C1=NOC2C3C2C12C1OC1C1C2N31 OC1C2C3=C4OC5C(C3)C5OC2C41 N=C1NCC2NC34CC3NNC4=C12 O=c1cc2c(c3c(c1)CNC3)CC2 CC1(C23C=CC4C(C(=N)N2)C43)CO1 CC=C1C2(CNC=CS1(=O)=O)CN2 COC12C3C4C5N4C1(C)CC5(N)C32 N=C1N=C2C(=C(N=O)OC23CC3)N1 C1C2NC34CC5C6CC3C(C65)C2C14 C1Nc2c1nn1c2OC2(CNC2)O1 C=CC12CC3C=C1C(=CC(C)N2)C3 O=CN1C=CC2=C(CN=N2)C1=CO CC12C3C4C5C1C5(N)C(N43)C21CC1 N=C1CC2=NC3CC(N2N1)S3(=O)=O NC1C2NCC34C5OC(C(O5)C23)C14 NC12C3C4=CC5CN5C1CC(O4)C32 CC1=NNC=C2N=NCC(C)C21 CC1=C2OC3(O1)C1CN4C(CC43)C21 CC1CC2(O)C3OC4C(=C13)CCC42 C1=CC23C=C4OC5C(C2)C5N(C3)C14 CC12NCC=C1CONC2=CC=N Nc1noc2c1c1cocc1n2N CC1(C2C3C4C3C3C(N)C4N32)CN1 CCCC1CC2=C(Cl)C=COC2=N1 NC12CCC3C(=C4CCC3(C4)C1)C2 CC=C1C2CC3CN=C(N32)C1(C)N CC1NC2C3CC4N5CC(C5)C14C32 C=CC(C(=N)OC(C)=O)=C(C)NN CC1C(=N)C2=C(CNC1=O)NOC2 C#CC12C3C4CN1C2C1C4=NNC13 C1C2OC3=NOCC34OC3C1C3C24 CC1NC2CC3C4C3C23CCN4C13 O=C1C=NNC2=C(O)NC=NC2=C1 C1=NN=Cc2nsc3c(csc23)C1 NC12C3CC4=CCN(C1C(=O)O3)C42 O=C1C=COC2CC3C(=CC=C13)O2 C=C1CON2C(=CO)C(=O)C(N)=C12 C1CC2C1OC13CC2C2C1CN2C3 C1COCCNC2C3N=C(C1)NC32 CC1OCC(NO)=C2N=NCC21N NN1CCC#CCC2CN(O)C1=N2 O=C1C2C#CCC3(CCC1C2)CO3 CN1C2C3C4=COC(O4)(C32)C1CO CCC1(O)C2C3CC4C5C(C1N42)N35 c1cc2cc(-c3cnns3)nn2o1 C1C2OC3=C(CC4C5CN4CC35)C12 NN1SC2=C(O)C1=NCC#CC=C2 NC1C2C3CC45C=CC3C14COC25 Clc1cc2nnc1[nH]cccco2 C=C1C2C3C2C24COC(C)(C3C2)C14 C#CCC1=CNC(=N)C1=C(N)N=N O=C1N=C2N=C3C(=CC4NC34)C2=N1 CC12CC(CC34CCC3CC=C14)O2 O=CC1=NNC2=CN=NC21CCO NC1C23OCC=C2OC2CCCC213 N=C1NC=C(C=O)C(=CN=O)O1 C1=NOC2CCC3C1=NNC3=NC2 c1nnc2n1Cc1c3c(cn1-2)CC3 C=C1CN=C2C1C1C3N=CN2C31C C1=C2C(=NC3C4CCOC3C24)SN1 C=CC(=O)C1C2=NNOC2=NN1C CC(O)C1C2=C3CC4CC(C24)N1C3 C1C2C3C(CC24CN4)N1CC31CC1 C1=C2OC(=NOC3C4CC2CC43)N1 C#CC1=C(C)C2C3C4C5C(C1N34)N25 N=c1c(=CO)ncn2c1=NOCC2 O=c1nc2[nH]scc-2cc1NO C=C1C(C2=CNNC2)=NCC1O C1OC23CN=C(CN4CC1C42)NC3 O=C1C23CC4NN=CC14C(CO2)O3 C1CC2(O1)C1(CNCC23CO3)CO1 C1=Cc2cnc([nH]2)NOCCON1 CC1NC23CC4C=C2CC=CC3C41 CN1C23CC=CC2OC2OCCC213 OC1C2OC3OC4(CC5NC4C53)C12 C1=CC23C=C4C1=CCC4(OCC2)O3 NC1C2C3C4=CCC5(C4NCC15)C32 CC12C=C3C4=CC(C5C3N51)C2C4 C1C2CC3C4NCC35CC(NC15)C24 C1C(C2=NNC3(CC3)C2)CC2OC12 O=CC1=NN=C2C=NN(C=CC1)O2 NC(=O)C12CC3C(C(N)=NC31)C2N C1=CC2C3C4CC25C=C1C3C5CN4 CN1CC2=COC3CC=CC4C1C234 C#Cc1cc2n(c1)-c1c-2[nH]sc1=N C1=C2CCC(=C3COC(=CC1)C3)C2 O=C1C23C=CC(C2)C12CC(=C3)CN2 C#CC12C3OC4C5CNC4(CN51)C32 c1cn(N=C2CC3CN(C2)C3)nn1 C1OC2CC34CC5C(O2)C(C5O3)C14 C1CC23CC(C(=N2)N1)C1CNCC13 CC1=CC2=NCC3=CC=NC(=N1)N32 NC1C2C3C4OCC35OC4C2(N)C15 C=C1C23CN4C(C2CCN3)C14C=O C1=NC2=NCCNCC23NNC=C13 NC1CC2C34CC1C2(N)C(CO3)O4 C1=NCC=C2C3NC4CC=C(C43)N12 OC1=C(O)C2CC(C2)c2[nH]cnc21 C1OC23OC(=NOC4C1C42)C1OC13 CC1(C)c2oc3c(c2O)COC31C NC1CC2C3C4OC45C=CCC15N23 CC1C2C3C4=NNC5C3N1CC52O4 C1=C2C3OC4CC1C(C1CC21)C4O3 CC1OC2(C)C3=CC(C)(C=C31)C2N CC1CC12CON1SC(N)=NC1=N2 C1=C2OCC34C1OC1CC23OCC14 CC1OC2C3=CCC2CNC2C3C12 CC1=C2CCCN3CCN=C(N1)N23 C1=NOCC23CONC=C2C=NC13 COC1=CN(N)N2OC(C)CN=C12 C=COC(=N)C=C1CS(=O)(=O)ON1 CC12C3=CC4(O)CC35CNC1C5C42 O=Cc1c[nH]c2c(N=O)ncc-2c1 C=CCC1CN=CNNC=CN=N1 CC12CC13C(C(=N)N2)C(=O)C1NC13 CC(C)=C1CN=C2C(O)=C(O)ON21 OC1=C2NC(=NNCCC3OC23)O1 NC1C2C3=C4CN(C2CC3)C1C4O C1=CC23CC4(CC(C1)N2)OC=C3O4 NNC(CN1CC(C2CO2)C1)=NO CC12CC3(N)C=C(O1)C(=C3)C1OC12 NC1C2C3CC14CCC1NC14C32N C#CCCC(=CNN=CC=O)N=O CN1CC23CC1C(=NC1(CC1)C2)N3 CC1C2NC34CC5(C)CN5C3(C4)C12 O=C1NC23CC1=C1C4NC2C4NC13 CC12CN1CCOCc1cnc2s1 Nc1c(=O)on2c1[nH]c1cccn12 C1#CCCc2[nH]nc3c2C(C#C1)O3 C1=CC23OC4(C=C2O1)CC=C3O4 C1=CC2C=CC3ONC(=NC3C2)N1 C1=NC=c2c(oc3oncc23)=NN1 NC12C3=CCCC1OCOC2=CO3 C1=C2OC3C4CC1C1C(=NNC21)C43 O=C1C=C2C3(CC3CS2(=O)=O)OC1 CC#CC1C2C3C=C4C(C3)CN1C42 N=C1C=Cc2cccc(=CO)c2=C1 CN1CC(Nc2c[nH]c(N=N)c2)C1 N=C1NC=NC2C3CC(=CN1)C2N3 N=CN1Cc2nccc(=CO)c2=N1 N=C1CC2CNC3C4C(=CC2C34)N1 CCC1=CC(=C2C=CNC2=O)NN1 N=C1NC2=C(CNC=C2C=O)C1=N N=c1nc2c(c(C=CO)[nH]1)CON2 CC12C3CCC45C(=O)NC(C34)C1C52 OC1CC1NN1NC=C2CCN=C21 C#CC(O)=C1N=CC(=O)OC1=NC CCC12C3=NNC1(C)CC2ON3C C1=C2C3CC4OC(CC5C1OC35)C24 C1=NCC23C4OC5C(CC4CN12)C53 Cc1nnccc2cc(o1)NC2=N C1OC1C1=C2C3OC4C2C2C1N2C34 CC1=C(NNC=N)CC(C)(N)C1=N CC12CC=C(O1)C1CC(COC2)O1 CC12CC3ON=CC1=COC2=NO3 C1CC12NC1C3(CC3)OC2C12CN2 C=CC1=C2C3C(CN3C1)C1(C)OC21 C1=C2C3CC4C1C(C4C3)C21CCO1 OC12CC3=CC1C1C2C3(O)C2CN12 CC12OC3=C(C1O)C1(COC3C1)O2 C=C1C2=C3OC4C2C(C1N)C4C3N CC1C2=C3C(CC4NC(C2)C34)C1C COC12CC1C13CC1(C2)C1CC1N3 C1=NN2C3=CCOC3ON=C2S1 C#CC1C(=CNN)N=NC1C#CC CC1C=Cc2c3[nH]c(=O)nc-3[nH]n21 CC1C(O)C12CN1C(N)=NOC1=N2 C=Nn1c(C)nc2c1=CC1(CC1)N=2 C=C1CNc2c3cnnc-3cnn21 CC(C=N)=C(NNC=N)C1NC1C N=C1NN=C2CC=C3CCCN1N32 OC1C2C=CC3(OCC4OC413)O2 C(c1nnns1)C12CC(O1)C1NC12 ONC1=C(O)Cc2oncc2C=C1 C#CC12CC1N1C=C(CC)SC1=N2 C1CC2ON=C3CC4OCC32C4C1 NC12CC3OC1C14CN1C=NC4C32 C#CC12CC3(C)C=C(OC1C)C2=C3 NC1C=C2C3=NNC4C2CC4C31N O=C1N=C2N(C=CN1)NCC21CO1 CC12C3C=C4CCC5(C3)C4C1CN52 C=C1COc2c1c1c([nH]c2=O)CC1 CC1=Cn2[nH]c3ncnc-3c2NC1 ONc1noc2cn3c(c12)CC=N3 NC1C2NC3CC2(O)C2=NC31CN2 NC1C2=CC3(N)C4OC3C1(N)C=C24 NC1C2(O)CC34OC(=CC13N)C2O4 C1=CC23CC4NC25C=C4CC3OC15 CC1CC23C=CC4N5C(CC42O1)C53 C1=C2C3C4CCC5(OCC1OC25)C43 C1=CC23OC4=CCC5(CC2C1C45)O3 OC1CC2OC3C4OC1=C(C4O)C23 NC1CC2(C=CC3(CC(N)C3)N2)C1 CC12NC3=C(C(=O)C4C3CC41)C2=O CC12CC34CN5CC3(C=CO4)C1C52 NNc1c2nccc-2occc1=O NC1C2C3C4CC5(OCC=C5C43)C12 OC1C2=CC3COC4(O2)C3C=CC14 Oc1c2[nH]c(c1Cl)C1(C=C2)CCC1 CC12CNC3CC4C5C1=CC(C45)C32 OC=C1N=NC(CC#CC=NO)=N1 NC1C23C=CC4C(C(OC2)O3)C41O C=CCC(C=C(NO)C(C)=O)=NC C1CC23CC4C5C2C5C2(CO2)C3N14 O=C1C=C2N=CC(=N2)OC=CCC1 C1=NNc2cc3n(c2CN1)CCN3 C=CC1=C2OC3C(C1)N1CC=C2C31 CC1C2C3CN4C5CCC(C5)(C24)N13 C=C1C23CON=C4C2=COC14OC3 C1CN2N=C3CC4CC4N=C3N2N1 C=C1C=CC2(C=O)CC3C=C1C2=C3 C1CC23C4OCC5C(CN2CC14)C53 C1=CC23C4NCC2(CC2CN23)OC14 C=C1C2=NC3C(C)=CC1(CN2)C3C C#CC1NNC=C(N=NC)CC1C CC12CC1OCCN1ON=NC1=N2 C=CC1C(C)=C2C3C4C(C)C2N1C34 CC12C3CC4(CN31)N=C(C#N)NC42 CC1OCC23C(CC4CC412)N3C=O C1C2C3C4NC5C4N2C1C5C31CN1 CC=CC(C=CNOC=NN)=NC CC1=CON2SC3=NOCC3=C2O1 C1=CC2=C3CNC4CC(C2=CO1)C34 C1=C2C3C(C1)C1CC4(CC4)C2OC13 Cc1scc2c1c1c(n2N)OCC1 CC1CCC2C13COC1OCCC123 C1=Cc2ncc(-c3cnsn3)n2C1 CC12C=NNC3(C=C(NC3=N)O1)C2 C=CC1(CCO)CC(NO)=CC=N1 CCc1[nH]c(=N)oc1C(O)=C(C)O C1=CC23CC45OC=C(O2)C4OC3C15 COC1=NC=C(O)N2N=CCN=C12 C=C1C=C2CC3C1C1C3C2=NN1C CNC1=C(C)NNCc2nscc21 O=C1C2C(O)C3C4C5=CC(C24)C13O5 NC1C2=CC3C(C2)CC2=NOC1C23 CN1CC2(C)CC3C4=CC2C31CC4 CC(C=N)=C1NC(=O)C(C)=C1N c1ncc(N=C2OCC3CN23)o1 CN1N=CC2C3CC14C2C1CC4N31 N#CC=C1C(C=N)=CN=C1NC=N N=C1NC2=C3CN4C(CO3)C1C4C2 C1=C2CC34CC2CC32NCC4OC12 OC12CC3C4C#CCCC1C2C3C4 C#CC1=C2CN3C1C1C2N2CC2C13 OC1=C2C=CCCCN=C1N=NO2 CC1=CN2N=C3SNC=C3N=C2S1 NC12C3CCN4C5C(=CC41)OC2C53 C1=CC2NN=CCNC3C=C1C2=C3 NC12C3C=C4CC1C1OC2C4(C3)O1 OC12C3=CCC45CNC(C1NC34)C52 N=CNNC1=C(C=N)C=CC12CO2 C=C1CC=NN=C2OC(=CS2)C1=C CC12C=CC3CC4(C1)ON=C3C4O2 C1=NN=CC23C(C=NN12)C3N1CC1 C1=CC23C=CCN4C(C5C(C1)N52)C43 CN1CC23CC4OC(=C2O4)CC1C3 C1=C2COC3=CCCC34CC1C=C24 CCn1oc2nc(=NC)oc-2c1N OCC1C23C=CC14OCC2=C4CC3 OCC12CC3=CC(C4C3C41)C21CN1 OCC12CC3C4NCC35NC4C1C25 OC12COC34C5OC5C(C13)N1C2C14 C1=CC23CC4(CCN5C(C4)C52)C1O3 CC1C2CC3OCC4C2(O)CCC314 OC12C=C3CN4C5CN(CC41C3)C52 OC1C2OC(C34CC=CC3N4)OC12 CC12CC3N1CC1=C2C3(O)CC=C1 CN1C2=NC3C4C(O)C2=CNC4C31 C=C1CNc2c(c3n(c2O)CC3)C1 CC12CC3=CC4C1C1C(N2)C3CN41 C1=CC23OCC4(CC2=C1)NCC=C43 CC1NC2C3(O)CC1C21ON=C3O1 C1=CC23CC4=CCC(C2)(O4)C1=NN3 C1#CC2=CC3(CC2)CCC(C#C1)N3 Oc1c(O)c2c(Cl)c(O)c1CCN2 C1=C2CN3CC4C(CC(C1)O2)C4C3 C1=CC2C3C4=C5CC(C4)NC1C5C23 C1=C2CC34C=C2C(CC1)(C3)OCO4 N=c1cc2c3conc3[nH]cc-2[nH]1 CC12CCN=C3C(N)=NON3C1C2 C1=CC2N3C4C1=CC21CCOC1C43 N=c1[nH]cc2ocnc3noc1c32 CC1(CN)N2CC3(N)C(O)(C2)C13O CC12CC1C13C(CC4(N)CC41)C3O2 C=C1C2CC3C4=NC1C3(CCN4)O2 C#CC1c2n[nH]cc2C(O)=CN1C C#CCc1ncc(C(=N)C=NN)[nH]1 CC1C2C3CC4C2OC12OC=C3C42 C#CC1=C2C3CC4(O1)C2CC1C3C14 NN=C1C2=C3CC1CC2(O)CCN3 C1=C2CNc3cnc(s3)C=C1OC2 ON1C2=NC3CC4(C=C2)CC3CC14 CC1(C)C2(O)CCC34CC3COC412 CC1OC2C3CC4CNC3C41C2N CC1C2OCC34CC5C(O3)C(C24)N15 N=c1c2c(cc[nH]c1=O)NC2CN O=C1C2=C(c3c[nH]c(=O)n31)C(O)C2 C#CC12CNC34C=C5CC3N1C5C42 C=C1OC2(C)CC3=CC24NCC3C14 CN1C2C(=O)C34C(N)=NNC3C4C21 C=CC(=CNN)C1=NCC=C(C)C1 C1C2N1N=C1OC3CC2(O1)C1OC31 NC1C2C3=NC4C2CNC14C1CN31 C=C1C=CN2C=CC(=NN(C)C1)O2 C=C1C2=COC3C4=CC(C23)C1(C)C4 CC1=CC2(Cc3c2nsc3O)NC1 NC1C2CC3=C(N=CON=C3)C12 NC1=C2C=CCCNN=C(N=C1)O2 C=C1C2CC3=CC4C(NC)C13CN24 NC12C=CC3C4N=C1NC1C(C34)C12 CC(OC1C2OC3C(O2)C13)C(N)=O O=C1C2CC3CC14CC2(C=NN4)N3 NN=CC1C2=C3CC4OC(C1O3)C24 NC1(CC2C3C2C2(O)CN3C2)CC1 C=CC1OC2=C3C(NC2)C(C)OC31 CC12OCC3(N=C1N=C3N)S2(=O)=O CC(O)C12CONC=C1N=NC=N2 CC12C3=CC4C(CC41)C3CC2=NO CC(C=O)=C1C=C(C2CCN2)NN1 OC1C2C3C4=NOC3C3C(C4)N3C12 C1=C2C=C3CC(CO3)ON=C(C1)O2 CN1CC2=C(C1)NNCC=NN=C2 C1CC2OCC3CC(C3)OC1=NO2 C=C1C=NNC2=C(C(C)=O)N=NC12 NN1C2C3CC(C2C=NN3)S1(=O)=O NCC12NC3C4=CC5C(N5C31)C42O CC1(C)CC2=C3C=CC24CC31CN4 C=C1C2C3CC2C24C=C(OC2)C1N34 C=CC12C3C4CC5(CCN1C52)C3O4 NC1C2Nc3[nH]c4sccc4c3C12 N#CC1=CC(O)=C2NN=CC=C2O1 C1=NOC2OCC=C3C2=C1C1NC31 C1=C2CC3CN3N2N2CCNN=C12 O=CC12CC3C4=CC1C3(CN2)NC4 NC1=CNNc2cc(O)cc(O)c21 CC1C2N=C3NC4C5C2C1C3C45N N=C(N)C1=C2C3=CC1C1CC(O3)C21 CC12C3OC4C5C(C5C1C41CO1)C32 C1=C2C3C4CC1(CCC21CC1)OC43 c1nc(C2C3N2CCC32CO2)no1 CC1=C2NCC(=NCC#CC1=O)N2 CC1=CC2C3C2(ON=CS3(=O)=O)O1 CC1CC23OC4C(C2C3O1)C4(C)N O=C1CC2C=C3C1=CC1C(=O)C2C31 OC1=C(O)N2CC3CN3N=C2O1 C=CC12NC3(C=O)C4C(C(=C)C13)C42 OC12COC=C3CN=C(N3)OC1C2 N=c1oc2ccc(=O)occn1n2 O=C1CC23C=CC4=C(CCC14O2)O3 CC1=C2C3(C)CC4CC2(C)N4C3C1 C1=C(N=NCCC2COC2)CON1 CC1(C)C2CC3COC4C2=COC341 NC12CC3C1N1C4CN3C3C(C41)C32 NC1CC2=C3CC4C5CCC31C5C24 C=C1CNN=C2C(C)=C(Cl)C=NN12 NN1C2=NC3C4ON=CC1CC2C34 C1CCOC2OC3CC2NC3=NC1 CC1=C2OC3C4COC2(C2CC12)C43 COC1=NNN2OC=CCCN=C12 CCC1=C(O)ON2C(=O)C(=O)N=C12 OCC12CC3(CC14CO4)OCC2O3 NC1C23CC4CC2C2NCC41C2N3 C1=C2CCC3COC4(O2)C1CNC34 CC1OCC23OC4(C=C2CO4)C=C13 CC12OC3C4=CCC35C(CCC15)C42 C1=C2NC(=NCC3CC3OCO2)S1 C=C1C2(C)CN3C(C)C4C(N42)C13C N=C1NNC23C4C=CC2N2C4C2C13 CC12C=C3C4OC(C(C1)C42)S3(=O)=O C1=NC23CCCCC24C(N1)C4NC3 OC12CC3C4OC1C1(OCC2O1)C34 NC12C3=C4CC5C3N5C1CC2O4 CC12OCC34C(=NC5CC53)NC1C24 CC(=Cc1c(C)[nH]c(C)c1O)NO N=C1NC2C3C4C5=NNCC1(C52)N43 C#CC1(C)ONC(=CN=NC)C1=O CC12CC1C13CN2CC(=NO1)CO3 O=C1NOC=C2C1=NC=NS2(=O)=O NCC12C3OC3C3=C4CC(C31)N2C4 C=CON1C=CN2C1=NNC1CC12 C1=C2CC3N4CCC3(O2)C(CC1)C4 C1=CC23CC4(CO2)OCC1=C3O4 CCC1=C2C3=CC1C1CC(CC3)C21 C=NNC=CN=NCC(=O)COC C=CC=C1Cc2oc(c(O)c2O)C1 C=C1C2C3CC14ON=C3C4C2C#N C=CC1=NC2=CC=NN=CCC1=N2 CC1=C2NC(=NCCCCO2)C1O O=CC1=NC=c2c1cccc2=CO CCC12C3NC1C1CC2(O)CC=C13 C1=C2CNCC3OC(C2)C2C1C2O3 O=NC1=CNn2cc3c(c2N1)CC3 CC=CCc1nsn2c(=S)[nH]nc12 OC12CC3C4C(C5CCC41C5)N3C2 CCCC1CC(=C(CO)NO)C=N1 NC12C3CC45C=CC(C(CC4)C51)C32 CC(N)(C=C1NC=CC(=N)N1)CO NC12C=CC34CN5C(C=C13)C5C4C2 O=C1C=C2OC3(COC3)C(O)=C2N1 C1=CC2C3C4CCC5CC54CC23C1 O=NC1=CNc2cc(CO)cn2N1 On1c2c(c3cc[nH]c31)ONC=N2 C1=NCCC23C4CCC2C2C4C2N13 N=C1CC23N=C(N1)C1C2CC2C3N21 CC1C2OC34CC5NC13C=C2C5C4 CC1C2C3C4C3(C)C3N2C3(C)C14O CC12N=C3NC1C1CC3=C(N)C12O CC12CC3C4C5CC4OC3(O5)C1O2 CC1=C(c2cnc[nH]2)C(N)CON1 N=c1onc2cc3c(c(O)n12)NC3 NC1CC2OC3C4NC5C4C2CC153 ONC1=C2C(=Cc3cc[nH]c32)CC1 OC1=C(O)N2C=CC=CCN=C2N1 CC1OCC2CC3C(=CCC3O1)O2 C=C1CC2CC23N=C2SC=NN2C13 CC1OC2C3CC45C=CC1(C3C4)C25 C=C1OC2C3C4=C(C(O)C=C4)C2C13 C1OC2OCC13c1nnsc1NC23 CC12OC3=C(O1)C1C(C3)NC12C=O O=C1C2CC3C(=NCC13C1CC1)N2 N#CC1=Cc2c(cnnc2N)NO1 CC(=NCC1CC1)C(=CNO)CN C=CC1(C)CC(=CNNC=N)C=N1 CN1N=CC2=NNC3C4CN=C1C243 N=C(CC1CN2C3CNC1C32)NO CC1=CC23CC4C=C(C2O4)C1(O)C3 CC12CC34C(N)C3CC3NC34C1N2 C1=NOC2OCC3N4CC=C(O1)C234 OC1CCC2(O)C3CC14N=C3NC24 CC1=CNC(=S)NC2=C1C(=N)CC2 CC12CN3C4C(=NOC1(C=O)C43)N2 CC1OC23OC4C(=CC2C14)NC3=O O=[N+]([O-])C1=CN2N=CCN=C2N=C1 N=C1CN2OC3C(=CC4NC43)C2=N1 CN1C2C3C4OC2C2(CON=C42)C31 Clc1cnn2c1C(C1OC=NO1)C2 O=c1nc2n(c(=NN3CC3)o1)CC2 COC1=c2[nH]c(=CC=O)nc2N=N1 C=C1C2=C3CNC4C(C)(O2)C1C34O O=CN1C(O)=CN=C2NCCN=C21 C1=CC2C3CC4=C(C3)C2(CO4)O1 CC1C2=CC3C4N3C3C2OC3C14C CNC12C3C4C5C4C1(O)CN5C32C CN1CC2CC13CC1(C)CC2=C3C1 C1=CC23C=CC4C5C(C(=C1)CC52)N43 CC1(N)C2OC3C2(O)C2=CC31CO2 C1CC2N3C4CC5ON=C(C54)C23C1 CC12CN3CC4CC1(C3)C(=O)CN42 CC1=CC23COC4(C)C(C(=C1)O2)C34 NC1CC12CNN1C=C(O)OC1=N2 c1snc2c1CC1C(C3CN3)N1N2 N#CC(=O)C1=NC(=CO)C(N)=N1 C1=CN2C(=NC3CC4OC3C42)C=N1 C=C1C2C3C2N2CC4CCC12C3O4 C1=NOC23C(N4CC4)=NC=NC2C13 CC1=C2C(=N)CC=C2C=NC(=N)N1 O=C1N=CN2CC34CC3(C=NO4)C12 CC1OC12C1NC3C4OCC32OC41 C=C1OC=C2C3C4C3C3OCC4C123 CCC12C=CC(N3CCC=N3)C1O2 CC(C=C1NCC(C)(CN)N1)=NO CN1C=CC(=O)N=C2SNC(N)=C21 CC1=CC2(O)C3(C1)NC3CS2(=O)=O C1=CC23NC45C=CC2NC4C3CC15 NC=C1C2=NC3C4C=CC1C4C3N2 CC1C2C3=CC4C(C1C4(O)C3)N2C NC12C3=COC14OC3C(C4O)C2O C1=C2CC34NC1C(C1OCC13)C4O2 CC12CC(N1)C1=C(CC3CN13)C2=O N=c1cc2n(cn1)NC=C(O)C=C2 CC1=Cc2coc(c2)CCN(C)N1 C=C1OC2C=NNC3C2=C1OC3C ONc1cc(Cl)c2c(Cl)c1CN2 C1=CC2C3C1CC14CC3C(CC21)O4 C1=C2CC3OC4CN(C2)CC14O3 C=CC1C(=CN=O)NOC1CC=O NCC12CC3=C4C1NC2C4(N)CC3 O=C1C2C3=COC4(C3O)C1COC24 C1=NC2=NN3C=NC4CC43CC2=N1 ONc1ccsc1C=C(O)C1CO1 CN1C=Nc2c(Cl)ccc(c2Cl)C1 O=S1(=O)C=C2C(=NC3=C2NOC3)N1 CN1C2C=C(C34CC=CC3N4)CC21 C1#CCC2OC3=CC(C1)C1CC2C31 O=C1C2C3CC45CC(CC4N3)C2C15 O=C1C2C3=CC4C5CN4C2C1C3O5 CC1(OC2ON=C3C=CN=C32)CC1 O=CC1=NNC=C(N=O)C2CC1N2 CC1C2C3C4OCC2(O4)S(=O)(=O)C13 CC=CC1CNNC=C(C=N)CN1 NN=C1CC=CC2(CC2)NC1=NN CC1(C)C2C3C4N1C1C2N3CC41O OC=C1NOCC=Cc2[nH]ccc21 C=C1C2=NOCOCCN(N2)C1C NC1C2C3NC4C5=COC4(C1O5)C32 C=CC1=CC=C(C=NCC)C=NN1 NCC12CC34CC1CC3C(=NN4)N2 CC#CC1=NNN2OC=CCN=C12 CC12OCC34C=C1C(N)(C3)CC42O NC1=C2C(=NC1=CO)C1CNC2C1 OC1C2CC34NC2C2CC3=COC124 CNC1=C(C)CONc2cc[nH]c21 C1CC12C1NC(C3OC31)C1OC12 CC1=C2OCC3=CC(CC32)N=CN1 CC12C3=CC45CC3CN4C1CN2C5 NC1C2C=C3C4NC5C4NC1C2C35 COC(C=C1NCCC2CN12)=NO OC12C3OC3C34C=NOC31C2NC4 CCC1=CC2=C(C=NC1)CNN2 C#CC1CCON=C2N=CN(O1)S2 C=C1CNc2cc(n(N)c2)NC=N1 CN=c1[nH]c2c([nH]1)C(N)=C(C)NC2 CC1CN2C3CC4(CN=C3N4O)C12 C1OC23COC4OC2CNC1=NC43 Cc1cc[nH]c2nc3[nH]nnc3c1-2 CC1C2C3C4OC15OC1C4C1C5C32 NC1C2C3C4CC1C1(C=NNC21)N43 C=CC1(C)CONC=CC=NC1C CNC1=C2C(=CNN3CC23)NC1=O C1NCC2CC3(CNC1=N3)C1CC21 CC1C2C3=NOC4C(CC5C3C54)C12 C1=CC2CCCCC3C=C1C(=C3)O2 CC12OC3C1C(=O)CC31CC2=CO1 C=CC1CC(NN)=CC(=NC)C1=C C=NN1C=C(CO)C(=N)C1=CO CN1NN=C2C3=CCNC3CN=C21 CC1=CN=NC2C3C=CC(ON1)C32 CC1C2C3CC1C14OCC(=CC31)C24 O=C1CC2CC3C4C5C(=O)C13N2C54 C1OC23COCC4(COCC2=C14)O3 CN1C2C3C4=CC15CC(O)C4C5C32 N=C1NC2=C3CN4C(CCO3)C1C24 CC1(N)CC(=N)C(C(N)=O)=C1NO OC1C2OC34CC2N(O)C3=NNC14 C=CC12CC3=CC(C4C3N41)C2C=O CC12CCCC1NC(=N)N=C(N)N2 CC12CC3CC14C=C(CN(C2)C4)O3 C1#Cc2snc3c2C(C=NOC1)N3 C=C1OC23C=C4C(CC2)CNC14C3 C1=CC23C=C4C5=NOC2C5CN3C14 c1cn2cc1C1C3CC(CN2)CN31 C1=CC23CC4OC25CN(C3)C1C4O5 CC12C3C4COC5(CCN1C45)C32C O=C1OCC2=C3OCC4OC(C12)C34 O=NC=C1OC(=O)NC2=C1OCC2 C1=C2C3C4CN4C14CN1C2CC1C34 C1=C2COC(n3nccn3)=C2CC1 c1noc2c1C1=NCCCN1S2 C1ON=C(Cc2onc3c2CN3)O1 CC1=C2CC3C4C5C1C(O)C5C2N34 CC12CC3C=C4OC3(C(=O)C41)C2=O C1=C2C3OCC1(CCC1OC21)O3 O=C1CC2C3OCC(=O)C34CN4N12 Cc1ccc2n1SC1=NCCCN12 C1OC23CNC(=NC4C1OC42)NO3 C1C2OC2C23CNC4=NOCC42C13 CC1OC23CC4C1C2C1C(=O)C3N41 O=C1C=CCC(=O)N2CC(=C1)CO2 C1=CC2CN3C4CC25CC(C1O5)C43 O=CCC1=C2C3=CC4OC(C1C3)C24 CCC1=C2CC3CC4(C2)CC3CC14 C1=C2CC3N4CCNC13CC4CO2 CC(=O)C(=CNO)C(=N)C#CCO N=C1C=NC(C2=C(N)CCC2N)=N1 C=C1CN=C2C1=CNC(O)=C2OC O=C1C=NC(NCC2NCC2O)=C1 CC1(C(C2=NN=CC2)N2CC2)CC1 CC1CC2=C3C(CC2)C(C)C(N)C31 CC1C23CC4C(N4C)C12OCC3O NC12C=CC3C1=CC1C4C3CC2N14 CC1CC2(C)NN3NC=CC3=NC12 C=C1C2(C=O)CC3CC1(C)NC3=N2 CC1CNC2C3CN4CCN=C4C132 C1=NOC23OC=C4C5NC5CC42C13 O=C1COCC2C3N=C(NO1)NC23 C1=C2C(NC1)C1CC23CN=C(N3)O1 CC12C3C=CC4(CN31)C2CC1CN14 C1=C2CC=C3OCCC(=C23)CC1 C=C1C(=O)CNNC2=CC(=N)C=C12 ON1C2=NCC13CCC1C(ON2)C13 CN1C23C=COC2OCC13C1CN1 O=C1NCC23CC4=C(O2)C1(CC4)O3 O=S1(=O)NN=C2C(Cl)=CNC=C2O1 C1=CCC(=CC=NC2CC2)NOC1 ON=CC12CC3C(N1)C1C2=COC31 O=C1C2=C(CN3CC13)N=COC=C2 CC1C2C3CC4C(CO)N=C(C43)N12 c1oc(=NCC2CO2)n2cnsc12 C=C1C2=CC3C4NC(CC=C2)C1C34 OC12CC3C4N3C1C1CC42OCO1 CC(=O)ONC=C(C)C(=N)C(C)N c1cc2sc1CNCC1=NOC2O1 C#CC(=C1NN=CO1)S(=O)(=O)O CC12OC1C1C3CC24OC=C(O4)C31 C1=NOC(N2C3CN4CC4C32)=NO1 CNC12C3CC1(C)C1C(N13)S2(=O)=O CC1OC23CC2C2C(N2C)C32OC12 C1#CC2CC2C2C3C4CC(C4C1)N23 CC1C2CC3=C4OC(C3C=O)C1C42 C=C1CCN2C=C3C(=NNC3C)N12 C1OC2=NOC3CN4CC1NC23C4 C=C1C23C=C4CCC1(CC2)C4=NO3 C#Cc1cnc2[nH]cc(C=N)c2n1 CC1=CC2C(=O)C3N2C1=NC31CC1 C#CCC12CC3C4=C1C1C(C4)C1C32 N=C1C#CC#Cc2cc(n(N)c2)N1 OC1C2C1C13OC1C1CN1C31CC21 CC1=CC=C(N)C2=NN(C)CC2=N1 OC12CNN=C3NC(CN4C3C41)C2 C1=CC2CC34CNCCC2(O3)C1C4 CC12C3C4C=CC1(NN=CN32)C4O C1=NC23COC4C(C2)C(=N1)NOC43 C=C1CCC=C2CN(OC1)C(=O)N2 CNC1=CN=NN2C1=NCC2(C)C C1=CC23C=C4C1CNC4(CC2)C3 C1=CC2=C(C1)C13C=CC(C1)OC3=C2 C1=CC2C3CC4C=C1C21CCN3C41 CC1=CC(CC=O)=C(N)C=CN=N1 CC1C=C2C=CC3C4CC=C(O1)C234 CN1C2C=C3C4OC4C4N(C)C34C21 C1=CC2CN3CC4OC(=CC2C43)C1 CCC1OC2C3=C(C)NSC3=NC12 O=S1(=O)C2CC34CN=C(CC2C31)N4 C1=NC=C2C(=NOCC3NC23)C=N1 NC1C2OC3C4(O)CCC13C=C2C4 CC(C)=C1C2OC3=CCC2N2C3C12 N=Nc1cc2c([nH]1)C1=CNCC1=C2 OC12C3CC1C1COC2C(=NO3)C1 O=C1C2COC3=CC=C(C3)CC1C2 OC1CN(C2C3C4NC5C3C5C42)C1 CC1C2CC1C1=NN=C(C=NO2)C1 NC12C=C3OC(C1)(C(O)C2)C1NC31 C=C1C2C3NC2C2C4=CCC12NC43 CC1=C2C3(C=CCC2(N)CC3)C=C1 C1ON=C(N2C3CC4OC(C3)C42)O1 CC12C3C4C=C5CC1(CO5)C4CN32 O=C1CC2CC1NN1OC=NC1=N2 C1=NCC2=CNC3=NCCC(=N1)N23 CC12CC(C1)OC=Cc1cc2c[nH]1 CC12CC3=C4OC5C3C1CC5(C)C42 NC12CN3C4C5CC(O5)C43C1(O)C2 C1=NNCC2C3CC14C2C1CN4C31 Nc1occcnoc2nncc1-2 Cc1nscc1C1=NN=NC1=CO Cc1[nH][nH]c(=O)c1C=CC(O)=CO OC1C=CC23C=C4CC1(C2)N1C4C13 C1=NNC2=C(N=NC2)C2CN2CC1 CNN1NC(C2CN2)=C2CCN=C21 C1C2CC34CC5C1CC(C5N3)C4O2 CC1=CC2CNC34C=C2C1(CC3)C4 O=S1(=O)C#CC=CC2=NC(=N1)NS2 Nn1cc2c(c1)-n1sc(=O)c(O)c1-2 CCC1=C(O)OC2=NC(=NN)CN21 CN1CC2C3ON=C4C=C1C2C43 O=C1OC23C=C4CC(CC2)N(C3)C14 Oc1c(CN2CCC=N2)ncn1O CC1OC1CC1=C(O)N=CC1=CO CC1=CC(=O)CN2C(=O)SNC2=N1 CC12CC1NCCOc1nnc2s1 N=C1NC2=C(c3cn[nH]c3)CC1C2 OC1C2C3CC=C4OC2OCC41O3 OC1C2=C3CCC4C(OCO2)C1C34 OC12C3NN=C4C5CC(C43)C1OC52 N=C1CN2CC3OC(C2=N1)C1NC31 C=CC(C=NC)=C(NN)C(C)=CN N=C1C(=O)C(=O)C=CNC1=CNO CN(C=N)C(C=N)=C1C=CC(=N)N1 O=C1Cc2ccn3c2C(=NCC3)N1 NC12CN3CC14CNCC41NC1C32 NC1C2CN=C3C4=C(NNC4)C1N32 C#Cc1[nH]nc(C)c(=NN)c1C=N NCC12OC3C1N1C4C1C3(O)CC42 CC1NC2C3CC=C1C1=CC3C2O1 CC1=C2C3N4CC2(N)C4CC3(O)C1 C1NC2=NCC3CC(CN3)CC1C2 NC12CC34CCCC5NC53C1C2N4 C=C(CNC1C2OC3C(O2)C13)OC C1CC2CC3CCOC2=NN=C3O1 CC(N)C1=C(C=N)NC(=O)CON1 O=C1C2CC3N=C4NC2C(O)C13O4 C1c2[nH]nnc2C12CC1OC1C2 CC1C=C2CC34CC2C1(C3)OCO4 C=CN1NCC23COC4C(N=C12)C43 C=C1CC=NN=C2C=C(O1)N(N)S2 Cn1cc(O)c2nc3s[nH]cc-3c21 O=C1C2CC3C(C=C4C=NNC143)O2 O=CC1=C(N=O)C2CC(NN1)C2O C1C2NN=C3NOC(OC32)C2OC12 C1C2OC2C2C3C4NC12C1C4OC31 OC12C3=COC1CC1C4C(NC12)C34 CC1C2N1C13CC1CNC31CC21C C1=CC23C=C4C1C2C=CC1C(O3)C41 CC(NO)=C1C=NC(C)C1C C=NN1OC=C2CC(=O)C(=N)N=C21 Cc1nc2n(C)[nH]cc-2c1CN N=C1c2nc3n(c2CN1O)CC3=O C1=CC2(N=c3[nH]ncs3)C=CC1C2 O=CCC(=CN=O)NOC1CNC1 O=C1C(=C2C=NN=C2)C=CNN1O C1CC23C(=NC4CN2CCC43)NO1 NC1C2C3=CCC14C3N1CC4(O)C21 CC1=CC2C(CC34C=CCC23O4)O1 C1=NC2=CC3C4C5OCC3(N1)C2C54 C1=CCc2nsc3c(ncn23)NC1 C=C1CC2C3(C1)C1CN(C1)C23CN C1C2=NNC3C4CC5(CO5)C1C4C23 C#CC1=NN2CC=C(C2)N=CNN1 C1=CC23CC4(C=CC2N4)C(=NN3)N1 N=C1NOC2C3OC4(CC3=NO4)C12 C1=CNC2=C3C(=NCC3COC2)N1 C1=CC2OCONC3=C2C1=NCC3 C1=CC2C3CC4CN3C3C1=NNC423 C1=C2CCc3nc(cs3)N=C(N2)O1 C=CC1C(=O)C2=C(CON2)C1=NC N#CC1C(=O)C(=CN=O)NN2CC12 CC1=C2C(=C3CNCC34CC24)CO1 C=CCC1=CC(=CC(=O)C#N)NN1 C=C1C2=C3OC4CC(C24)C1(C)C3C CNC12C3CC1C1=C3CN3CC2C13 C1OC2=C3CC4C1C2C1C3CN41 NC1C2C3NC2C2=C3COCC21O C1=C2C3CC4NCC2C4(C3)C2OC12 ON=C1C=CCONC=CN=NC1 N=CC1=CNC(=CC(=O)C=CN)O1 C1CC2=NN3CC3c3snc(c32)O1 CC1C2OC3OC4C(N=C3N1C)C42 NC1C2C3=CCNCC#CC(O3)C12 CC12C(N)C3=C4CCN(C41)C2(C)C3 C#Cc1cocc1C1=CNNC1C CC1C=C2OC3C1C1ON=C2C13C CN1C2=NC(=O)C3C=C2C2C3CC21 CN=C1N(C)SC2=NC3CC3N21 O=C1NON2CCC3(CC3)NN=C12 CC(CC12C3CCC1C2OC3)=NN C=CC1=C2C3NCC24OCC3(C1)O4 CC(CC1(C)CN(N)C(C)=N1)=NN CC1C2(CO)C=C3C(=NCC31O)N2 C1NC2CC34CC5(CN5)C(C2N3)C14 NC1C=C2CC34CC(OC13)C(O2)O4 OC12CC3C4=NOC3(C3OC31)C2O4 ON=CC12OCC34CC1C(=NC32)N4 CN1CC2C(=NC3CCC4C3N24)N1 NC1C2=CC3CC4(O)CNC31C4C2 C1=COC(Cc2cn3c(n2)CC3)O1 Clc1ccc(N2CCOCO2)nc1 CC12C3C4=CC(=O)CC3CC1N2C4 OC1=C(O)C2=NCC=CCON2N1 NC1=Cc2c(ncc3cn[nH]c23)C1 O=C1OC23C4CCC2N2C(C4)C3C12 NC1C2CC34CC3(CC12)C1CC1N4 C1=C2OC3(C1)C1=C2CC2NC3C2C1 OC1=CC2=NC3C=CC(C3)N2N1O O=C1C2CC3C(=COC13C1CN1)O2 N=C(NN1C2C3CC(N3)C21)C1CO1 OC1C2C3C4NC25C=CC1(C5)OC43 C#CC12CN3NN=CC3=NCC1O2 N#CC1CC23C4NCC2(COC43)O1 OC1C2OCC34CCNC23C1OC4 CONc1c(CN)coc1C=CN CC1C2=CC(=N)NC=CN=C1NN2 C#CC12CC3(O)C=C(CO1)C(=C3)O2 C1#CC2(CCN3CCC(=C1)C3)CO2 C1=NN=C2C3C4OC25C1NCC5C43 COC12OC3(C)C4(N)C1OC2C34N C=CC12C=CC(=C1)C#CC=CCC2 C=Cc1cc2c(n1O)=NCC=2NC NC12CC3C4C3C13COCC2N4C3 O=CCC(N=O)=C1CCOCON1 CC(O)C1CN=NC(=CNO)NC1 C#CC1C2Nc3c(nn4c3CC4)C12 N=C1C=C2N=c3oc(=O)[nH]c3=C2N1 CC12NC3CC4=C(C5CCC4C51)C32 NC(CC=COCC(=O)C=O)=NO CC1CC23CC4(CN2)OC=C3C14N CC12C=C(OC1)C(O)C#CCCN2 C1=CC23CC4CN5CCC4(N2)C1C53 CC1=C2C3CC4(CC1)C1NC(C31)C24 C=C1C2C(O)CC34CC5C(C23)N5C14 Cn1cc2c(C=O)cc(=N)cc-2[nH]1 N#Cc1c(C=CNO)[nH]ncc1=N CC1N=CN2OC3C(=C12)OCC3O OC12C3C=C4C5NC5C(C1CC3)C42 C1#CC2CC=C3C2=NOC3OC=C1 OC12C3OCCC45CC3N(C4)C1C52 C=CC12CC1NN1C2(C)CS1(=O)=O CC12C=CN3C=C(N)OC3=NC1C2 CC12OC3=C4CC(C1N3)C2C4=O C=C(C)C1C(C)C2(OCCO2)C1C OC12C3NC1C1OC4=CC1C2OC43 C1C2=NOC34C2OCC3N2CC4C12 CC12C3C4OCC5(COC1C45N)N32 CN1C2C3=C4CC2C1C4(C)C(N)C3 CC12C3CN4CC4C34CC1(N)C2N4 N#CCC1=NC(S(=O)(=O)O)C(N)=N1 C1=C2CCC1COCc1nc2ns1 CC1=C2C3NC4(C1)C1NC(C31)C24N O=c1sc(=O)n(CCCN2CC2)s1 CC12CC1C13CC1(N2)C1CC3(N)C1 C=CC1=C2C3C(C1)OC3C(=N)N2C CC1=C2CC3OC4(COC3C14N)C2 CC12CC3(CN=C1N)OC2=CC3=O CC1C2OC3=C4CCC(C42)C1(C)C3 ON1C2=NC34CCC(O)(C1C3)C4N2 C=C1C2=CC3NC4(C2)CC3C(N)C14 C1C2c3nn[nH]c3C3C4C1C2CN34 C1=CC=CN=CNNC=NCC=C1 C1#CCC2OC3=C(O2)C(CC3)OC1 OC1CN2C3=C(C=NOC=N3)CC12 CC(N)C12C3CN4CC(=CCC41)C32 NC12C=CC3(O)C4=CC(O)(C1O4)C32 NNC(=C1OC=NC1=O)C1CO1 C=C1C2=C(C=NC1(C)C)CC=NN2 NC12C3CC1C14COC(OC31)C2N4 C=C(c1nc(N=NC)c[nH]1)C1CO1 NCC1(c2[nH]ccc2N=O)CCN1 C#CC1C(NN=C)=CC(=NC)C1C CNC1C2NC(=C(C#N)CO)NC12 OC1CC2=C3OC14C=CC3(CO2)C4 CC(C#N)N1SN2CCN=C2C1=N NC1C2CC3C4(CCNC13CC4)O2 C1OCC23OC1=C1CC2OC2C1C23 CCC1=NN(C)N2OCC(C)N=C12 C1=CC2OCC3=CC2OC1ON=C3 CC(NO)=C(C=NCC(C)O)CO Cc1scc2c1C1CONC1=C2O CC12C=CC34NC1C1C3C1(C)CC24 C=C1C(=O)ONC(COC)=C1C=N C=C1C2C(C(=NC=O)N1NC)N2C OC1C2=CC3(CC14CCC3O4)NC2 O=C1CCC23CC4(C=C12)CC3=CO4 Nc1cc2n(c1)SC1=NCC(=O)N12 C1=C2C3OC3C3C2C(C1)C3C1CN1 NC1C=NN=C2SC=C(CNC1)S2 O=C1C=C(O)C2=NNCC=CN2N1 CC12CC3=C(C1)C1=NOC(C1)(C2)O3 CC1CC2C1N1C3C4CCC(C31)N24 CCOC(=CNNC)C(C=O)=NC C1=C2CC3C4CC(CC3N4)(O1)O2 C1=C2CN3C4C2CC2C4CCC123 CC1=C(C)NC(C(=O)NN)=CN=C1 C=C1CC23C(C)C4=CC2C1C1C4C13 C1#CC2=COC3(CCN(C1)CC3)C2 N=C1NC(=O)C=CC(=O)C1=CNN CC1=NN=C2SC(=CN2C)OCC1 C=C1CC2C3OC4=CCC2C14C3C C=CC1=CC(N)=CN=C2CNN=C12 CC12C=CCc3nnnc(c31)C=C2 CN1C2=C(OC3CCC31)C(=O)N=C2 NC1C2C=C3OCC14NCCC2=C34 O=CC1C2OC34CC3(OC=NO4)C12 N=C1CNC=C2C1=CN=C2NC=O NCC1CC#CC2=CSC(=NC1)N2 CC1CC(C2(S(C)(=O)=O)CN2)=NN1 C1CN2C3CC4=C1C1CC4C3C12 CC12CC3(ON=CN1)ON=C2C3N C1C2NC3C4C5=NNC13C1C5N1C24 CN1CC2CNC3CC(O)C4C1C234 C1=CC2C3CC4(C=C3NC=N4)C2C1 CC12C3=CCC14CC3C1(O)C4CC12 CC12CC3OC1C1(N)COC2=C3C1 CC12CC(CC(=N)C=CNO1)C2=O CC1C2CN1CCOc1ncc2o1 CN1CC23OC(=N1)C1C(C=CC12)O3 O=C1CC=C2C3C4C3C3NCC4C123 C=CC(=CC=NCC(C)(C)N)NO NC1C2=C3CCN4C(C3)C3C1C3C24 CCC1C=C(C=O)C(=CNO)C1=N C1NC23CN=C4NC2C2NC(C12)C43 CC1C2=CC3C(C)C4CC3(CC14)O2 C=C1C2ONC(C)=C2c2cncn21 C1CC2=NNC3=NCCC(C1)CC23 C=C(C)C#CC(=N)NC(N)=NO C1=CN=C2C=NN(C=NC1)CCN2 CC1C2C#CC3CC(=NN3)CC1C2 CC12C3NCC14CCC1=C4CN2C13 C1=CC2NNC3=NC4CC(C4O1)C32 COC12CC3C4=CC5C(N5C41)C32C NC12CN(C1)C1=C2SN2CCN=C12 C1CC12OC1C3NN=C4NC3C1C42 NC1=C(Cl)C=CC2=NNCCCN21 CNc1cn2[nH]cc(C=N)c2c1O N=C1C2=C(CC1N)NC=CC(=O)O2 CC12C3=NNC1CNCC2CN3N O=CC1=C2C(=NC3CN2C3)N=NO1 CC12CN3C4CC5CC(C5C=C41)C32 C1=CC23CC4C=C(OC=C2O1)C3O4 C=C1C2=CC(C#CCNC=N2)C1O CN(C=O)C(=Cc1c[nH]cn1)N=O CC12CC3(O)C=C1C1=CC3(N)C2O1 CC1OC2C(C=O)C3C2C1=NN3C CC1=C2OC3C(C)C2C2C1C(O)C32 C1=C2CC3OC4COC3(C14)C1NC21 CNN1C=C(Cl)C2=NCC3CC3N21 CC1C2C3CN4C5C=C(CN12)C3C54 OC1C2=C3CC4CC(C3)N(CC2)C41 CC1COC(c2cc[nH]n2)=CNO1 C#CC1=CC2=NOCCON2N1N CCC1C2=CC3C1C1C=C2C(C)N31 CC(O)=C1C(=O)NC=C1NNC=O OC=C1N=CC(OCCO)=C1CO O=C1C=CN2C13CCC1NCCC123 CN1OCC2N(N=CC23CO3)C1=S C1=C2CC3CCC(C3)ON=C(O1)S2 NNC=C1C=NC2CCC=C2CO1 Nc1cc2c3c(c1)OCOC3C=C2 CC1=C(C(=N)C=O)C2C(CO)N2N1 O=CC12NC3CC14C=C1CC4C3C12 CC1C2=CC3OC4(C)C3C3C1N3C24 C=CC1N=C2C(=NNN2N)C1=CC C=CCC(=O)C1CNNC=C1N=O CC12CC1n1c(nc3ncsc31)O2 N=C1CC=C2OC3=C(C(=O)N=C3)N12 C1=CC23CNCCC4(C=C1C2=C4)C3 CC(=C1NCc2[nH]ncc21)C(C)C CC12C3C4C5C4C4C(CC41O)C5N32 COC1=CC2C3=NC4C(N3)C1C24N OCCCN1CCCN=NC=CN1 N#CC1=CN2OCON=C2C=C1Cl OC1CC2C3OC4C5NCC24C1C53 OCC12C3=C4CC(CC1C4)C2C=C3 CC1=C2CC3C4C(C=O)=CC2N4C13 C=C1OC23CCC=C(CN4C1C42)O3 CC12CC3=C(C1)CC(C(=O)O)(C3)O2 C=CCN=c1[nH]cc(C(=N)C=O)[nH]1 C1C2=NNCC3(C4CO4)OC1OC23 C=C1OC23CN4C(CO2)C3(OC)C14 O=C1C23CON=C4C2CC(O3)C14O NCC12NC3C4NCC35NC4C1C52 CC1=C(C)N2C(N)=NN=CC2=NC1 C1=CC2=CC3(C1)CC1(C=C3OC1)C2 C1=CC23CCC4(C=C1C2)OCC=C34 C1CC2OC3C4C5OC3(C1)C(O2)C54 NC12C3=CC4OCC1(CC3)NCC42 O=CN1C2C=C3OC2C2C3C21C=O CN1C=NC2=NCC(=CC3CN31)N2 C1Nc2c1nn1c2C2=NOCC2O1 CC1=C2C(N)=NCC2N(CC=O)N1 C=C1CN=C2N=CN=NC(NC)=C12 CC12CC(=NO1)C=CCN1CC2C1 C#CC(O)=C1C=CC(=O)C(C)=N1 CC1C2=C3C=CC4N(C2)C1C34C#N C1=CC23C=C4COC(CN2)(O4)C3O1 C#Cc1[nH]ccc1C(O)=C(O)C#N CC1N=C2NC3CC2CC2NC3C12 OC1C2OC34C=C5CC3C1C2C4C5 N=C1C=CC(=CNOCC=O)C=C1 CCC1=CC2C3C2(CNS3(=O)=O)C1 NC12CCC34N=C(CC13O)NC4C2 C1=C2C(=NCC23CN3)N2OCCN12 O=C1C2=NC3C4CC3C1(C=CN2)C4 C1=C2C(=NC3C4COCC4C23)SN1 c1cc2c(C3CCN3)nnc-2c[nH]1 C1Nc2c(C3CO3)sc(C3CN3)c21 CCON1OC(N)=C2C=CCN=C21 c1c2nsc1CNC1C3CC2CC31 C1OCC23NC(CC12)c1[nH]nnc13 OC12COC1C13C=C(C2)C(CC1)N3 O=C1NC2=COCC3NCC(=C23)N1 COC(=O)C1=C(C=N)CCNN1 CC1=CNC(=N)N(O)C1=C(C)N=O CC1C2=CC3N=CNCC4C2N4C31 CC12NCC3C1C1(C)OC2=CC31O C1=CC23C4CC(C2O1)N1CC(O4)C13 NC1C2C3(N)CCC4(C3)OCOC124 CC1C2C13CCC(O3)C1(C)CC21O OC1CC23COC(C=CC24NC14)O3 NCC12CN3C4C5C4C1N1C5C1C32 C#CCC1=CN(C)N=C(NN)N=C1 OC12CC34CC1OC1C3C(CN4)C12 N=C1CN(N)C(N2C=CCC=C2)=N1 O=C1CC2CCN=C3N=NNC1=C32 NN=C1N=C2C(=CC3CC23)C1=NN CC1=CC2=C3C1N1CCC3(C1)NC2 COC1=NC2C(=NN3C2C3(C)C)N1 CC=C1NC(=N)N=C(N)OC1C=O NC1=C2C3=NOC24CCC3(C1)OC4 CCCC1c2oc(c(O)c2O)C1C C1NC2COC3COC24C1=NOC34 NC1CN2C3C4=CC5CC41C(N5)C32 O=CC12C3COC1C1NC(=N3)OC12 NC1C2C3C4=CC(N)C(C4)(C1N)C32 NC12C3N=C4NC1C1C4C=CC1C32 C=Cc1[nH]cc2c(C=N)c(C)[nH]c12 C1=C2CNN=c3ncoc3=C2NC1 CC1C2C(O)C3=CC24CC1(C)C3O4 CCc1c2cc[nH]cc-2cnc1=O C=CC1S(=O)(=O)C=C(OC)S1(=O)=O NC12CC3NC4C(=C1CC34)OC2=O C1COCOC2=NOC3CC2C3C1 CNC1=C2CC(C)N=C2N(C=N)S1 N#CC12C3OCC(C4C(C=O)N41)C32 C=C1N=C2COC3CC3C=CC1N2 CC12C=CC3C1C1=C(C(N)CO1)C32 CC1C2=NOC13C1OC(C)(C21)C3N O=CC12C(=O)CN1N=C1SNC=C12 C1C2CN3C1C3(Cc1nn[nH]n1)C2 C1=NCC=C2OC3CC3ONC2=C1 CCC12CC1N=C1N(N)C(O)=CN12 NC12C3C=C4CC3C1ON(C=O)C42 C=CC(=O)N=C1N=CC(=CC=N)N1 C=C1C2C3C(C)C4=NOC1(CN23)O4 OC12CC3CC45C=CC(C=C4C31)C52 OC12C3OC45COC3C4C1C2O5 C1=CC2CC3C=C4COC(C1)C42N3 CCC1=NOC=NC(N(O)CC)=N1 CN1C=Nc2con(c2=N)OCC1 CC=CCC1=NNC=C(N=NC)C1 CC12C=C3CCC4(C)C3=CC1N4C2 C1ON=C2NCC(NC3CC3)=C2O1 CC(O)=Cc1occ2c1C=C(O)C2 CC1=C(NNC=N)C=CN=CN=C1 C1Cn2c1nc1c2C2(CN2)C2OC12 CC12OCC3OC14CC3(O)C2=NO4 O=C1OC=C2N=CN=C3NNC1C23 C1NN=C2C1C1C3C2CC2(CO2)C13 CC1NC2CON=C3N=COC1=C32 C1=C2CNn3c(cnc32)OCCC1 C1=C2CCC(=CC3COC(C3)O1)C2 O=C1C2CC34CC(CC13)OC(=N4)N2 C#CC1COC(=C2NC=NN2)C1=O CC12C3CC1C1=NC4C(N1)C2C4N3 COC1=C2CNC1c1c(Cl)c[nH]c12 C=C1C2=C3OC4(C)OC3C(C2)C14O CC1(C#N)CC2=C(C=O)NOC2=N1 CNc1nc2c(O)c(c1Cl)CC2O CC(=O)CC1=C(O)C(C)=NC1=CO C=CNC(CC12COC(C1)C2)=NC C1CCN=C2NN(CC1)CC21CC1 O=C1C2C3C4C5C=NOC(O5)(C14)C23 CC12OC3CC1C1=CCC(=O)N1C32 CC12C3=CCC1NC2C1CN=CN31 OC=Cc1cc(N2CCC=N2)n[nH]1 C1CNC(C2=NC3CC(C3)ON2)C1 O=C1NC23CN4C5C(CC2(O)C14)C53 CN1C2C3(C)OC3C3N4CC(C4)C321 C=C1CC2C3CNC4CCC1(O)C432 CC12C=CC3(N)CCC(=C3O1)O2 C=C1CC23CC(CC4(C)OC24)C1N3 CC1=CC(=O)NC(CO)=C(N=O)O1 CC12CC3(N)C=C(C1C3)S(=O)(=O)O2 NC1(C2OC3=CCC4CC2C34)CC1 COCC1CON2N=C(C)SC2=N1 C=C1c2c([nH]n(C)c2=O)C2(C)CN12 OC1CC23CNC4(C=CC1=C42)CN3 C=CC1=C2CN(C1)N=CCC=CO2 C#CC1=CNN(C)CCCC1=NC NC1C2CC3N4N=CC(=NO)C34C12 CC1(C)C2CC34OC2OC3=NNC41 C1C2OC34CC5CC2C(C1O3)N5C4 C1=C2OCC1CCCC1ON=C2O1 O=C1Oc2cn(C3=CCC=C3)cc21 Cc1csc2c(=O)c(=N)n(O)oc12 C=CCNC1=CNOC(C)CN=N1 C1=C2C3COC4CNCC24OC1C3 CC1CC2=CNc3ccoc3C2=N1 CC12CC3=C4C5C(N)C3C5C1NC42 C1=NC2C(CN3CC23)C2=C1CNN2 CC1(N)C2NC34C5CC(C5)C3C4C21 C=C(C)N1N=CS(=O)(=O)C1=CNN CC12C=C3C(=NO1)NC1CC2(O)C31 C=C1C2OC3C14C=C(OC4)C23C=O C1C2CN1C1C3C4=NNC(C4)(C2)C31 C=CC1CNc2c3ccnc-3[nH]n21 C1=C2OC3C4C5CC2C3(OC1)OC54 CC=C1C2OC34CC2NC3=NNC14 C1=COC=C2CCC3C(=CCC23)C1 CC1C(=O)C2=C3C=CC4C(C3)C2N14 OCC12C=C3C(=N1)N(O)CC3(O)C2 OC12C3=CC4CC(CC1NC3)C42O CC(=CC1CN=C2SN=CN21)CO OCC12CC3CC14CC(=NC32)NN4 COCC(=N)C(C)=C(CC=O)NO CC1OC2CCC3CNC4C1C324 C#CC1=CN(C)NC(=NN=C)N=C1 CC1CC2CC3CC=C4CCC2C413 C=C1C2N3CC4(CCC3C14)C2(C)O OC12C3N=CNCC14OC4COC32 CC1(O)C2OC1C(N)=NNC2=O CC1CC2C3OCC24C(CCN14)O3 OC(c1c(Cl)cn2c1CC2)C1CN1 C1CC23NN=C4CN1C2CN1C4C13 CCC=NN1OC(C)=C2CON=C21 CC1OCC2=C3OC(C2)CC31C#N COC1C2=CC3C4(C)COC13CC24 NC1C2=C3CN4CC5C3C1C(O2)C54 OC1=CSC2=NC3(CC=CC3)CN12 C#CC1=NN(C)N2C1=NCCN2C C=CC(C=N)=CNN1CC1CC=O NN(C=O)C12C(O)C3C1CC1C2N13 C#CC=COC1=C(NN)C(C)N=N1 CNC1=C(O)N2C(C)=CCN=C2N1 CC12C3=CC4(O)CC1NCC42CC3 Cn1nc2c(O)c(N)occ-2c1=O CNN1OC=C2C1=NC1CN2C1C C1=C2C3CN4CCCC(C1)C24CN3 O=C1C2=CC3CC4=CCC2C4NC13 C=CC1=NC2=CN(CC)SC2=NN1 CC(O)=C1C(=O)C=C2CCCCN21 CC1Cc2ncnc3ccn(c23)O1 C1=CC2=C3C4CCN5C3C5C4C2O1 CC1CC2N3CC4=CC2(CC13)NC4 C1=C2OC3C4COC15CC2OC3C45 CC(C=N)=C1C=C(CO)C(=O)N1 CNC1C2=C3C=CC4C3C(C)(C2)C14 N=C(C=O)c1cnc2cc[nH]cc1-2 N=C1C=C2NOCC23OC(=O)C13N CNc1cccn2c1cc(=N)n2C C1CC23CC4C(=C2O1)C1CC4C3O1 CC1CC2=C3OC4C5C3C5C1(O)C24 C1CCC2C(C1)C1=NOC3CN2C13 O=c1cc(C2CO2)n2[nH]cccc1-2 CC1N2N=NSC2=NC2C(O)C21C OC1CCN(n2cc3c(n2)CO3)C1 NC12CC3=C4CC(C1O4)C2C(=O)O3 CN1C2=NCC34C=NOC3C1C=C24 C1=NC2CONC2=C1n1cccc1 CC(O)C12CC1N1SC=C(O)C1=N2 C#CC1C2=C3OC4(C)OC3C1C4C2 C1CC23CN4C5C4C2OC1CC53 COC1=CNNCCCN=C1CO C#CC1=NC2=C(NCC2C)C1=CO S=C1NCC2(CC23C=COCC3)N1 O=C1CCC2C3C4C5C(C1CN54)N23 CCC1=CC(=C2C=CC(=O)N2)N=N1 CN(C)CC1=C2NNCC2(C)N=C1 CN1C2C=C3C(=Cc4ccsc43)C21 N=C1NC2=C3CC4N(C3)C2C14C=O O=C1OC2C3C=C4OC3C2(O)C=C14 Clc1cn2ccnc3c2c1CC=C3 N#CC1=CC=CNOC=NNC1=N CC1C2OC34CC(=O)C3(C=NO4)C12 NCC1C#CC2=CNC(=NN=C1)S2 NC12C=NN=C3OCCC(=C31)NC2 NC12COC1C13C=C(C2)C(CO1)O3 C1#CCC2CCC3C2=NNC3C=C1 CC1C2(C=O)C=C3C(=COC31C)C2 CC1C2CC3C4CCC25CC13CC45 OC12C3=C4CC(OC3)C1OC2CO4 CCC1C2C3=C(C(=O)C=N3)C1N2C C1OC2CN3CC2C2(CNC1=N2)C3 NCC12CC3=C(O1)C1N(C3)CC12N Cn1c(C(=N)C#N)c[nH]c1=O OCC12CC3(O)C1C1=CC3(CO1)N2 NC12CC3C1CC1CC4CC12C3N4 C(CC1CO1)=NN=C1CNC=NO1 CC12CC3C=C1C(OCC2CN)O3 CC1=C2CC3OC4C(NC(C)C24)C13 C=C1C2C3=CC4C2C2OCC4(C3)C12 CC1=CC(=CO)c2snnc2C1=N CC1=C2NN=C3CCC(N)C32N=C1 CC1=NOc2c(ccn(N)c2=O)N1 C1OCC23NC4C1N1C4C2NCC13 C=C1C2C3N2C2CN(C)C3(C2)C1N OC1C2ON=CN=C3NC=C(N3)C12 C1=C2CC3C4C5COC2(C4O1)C53 OC1CCN2CC=CCNN=C1N2 C1=C2CC3NC(C1)C1ON=C2C31 C=C1CN=NC(=Cc2ccc[nH]2)O1 CC12C3C4CCC1(OCC32O)C4=O C=C1CC2=C3CC4(O)C(C2)C1C4O3 CN(C)N1OC=C2CON=C21 CC1NC12C1C3C4CN5C3C2C5C41 CC12CCN1N=C1C=C(O)SN1C2 CC1OCC2(N)C3(CNC=N3)C12O N=C(N)NC1Cc2sc1c(O)c2Cl C1C2CC34CCC(CC3)(C2)OC1O4 O=C1OC=CCOC2=NNC=C1N2 CN=C1CONC2=C1CC1(N)CC21 O=CC12C=C3CC14CNC2C(O3)O4 CNC=C1C(=O)N=C2ON(O)C=C12 C1CC2CNC3C4NNC1=NC2C34 CC1Nc2cc(=O)n3c(c21)CN=C3 C=C(C)C12CC1C(C=NC)=CNO2 CC12c3c([nH]oc3=N)C1C=CC2O CC1=C2C3CC4(CO1)C2OC3C4C Cc1cc2c(N)ncc(C=N)c2o1 CN1SC2=NNCC(CN)C2=C1O NC1=C2N=NCC2Cc2[nH]cnc21 NC12CC3(N)C4=C1CC1C4N1C23 CC12C3C4C5CN1C5C1C4N1C32C C#CC(O)=C1N=NC(=O)C(=N)N1C CC1=Cc2nccc3[nH]nc(c23)C1 C=CC(N=Nc1cc[nH]c1C)=NO C1=C2CC3C1C1C2=CC2C3N21 C=C1C2(C)CC3=NCC1(CO2)N3O O=C1N=C2CCC=C3C=NC=C1N32 C=C(C)C1(C)CC2=NNN(C)C2=N1 CC1=NOc2c(cc(N)[nH]c2=O)N1 CC1(O)C2C3C4=CC1(CN32)C(=O)O4 CC12C3CC1C1CC1C1NC12CO3 CC12CC(C3COC4CC43)=CC1O2 NCC12CC3(O)C=C1C(=NO2)C3N N=CN1OC2OC3C4C5CC31C2C54 NC1=NC2C(CO)(C1)ONS2(=O)=O O=C1NC2C3C4N3CC23C=NOC143 OC1c2sc(c(Cl)c2Cl)C1N1CC1 CC1=COC2=CN(O)N=NC2=NC1 N=C1CCN2CCC(=N2)CC(=N)N1 OCC1=C2C3NCC24COC3(C1)O4 CC12NCC34C(=O)C1N(C1CC13)C24 CC1=C2OC=CC=CCC1=NC2=O CC1OC=C2C3OC14OC1C3C1C24 CC1C2=CC3(C=CC4C3C24N)C1N C1=C2C3=NNC24CCC3(O1)C1NC14 OC12C3=CC4C1N4CCNC2CC3 OC12CC3=C4CCC(C1C=CO3)C42 C1N=C2NC3C4OC2CC13C1OC41 N=c1c2c([nH]n(C=O)c1=N)CC2O COC(NC(=N)NC=NO)=C(C)C C1=C2CC34CC2CC(CCO3)(C4)O1 CC1C2OC=C3CC2C2C(CN12)O3 CC=NN1C=C2C(=CN=C2NO)C1 C#CC1=C2C3CC4(C=C1)NC3CC24 NN=C1C2CC(C=C3CCCN31)C2 O=c1nc2c3c([nH]nc3o1)OCC2 ONc1noc2c1cn1sccc21 CC1OC23C=CC4=C2CN2C4C3C12 N=C1C(=NN)C2=C(C3CC2C3)N1N OC=C1C(C2CC2)=Cc2nc[nH]c21 O=c1c2scc(O)c2n2n1OCC2 CC1=C2OC34OCC2C3OCC14N C1NC12COC1OC23CNN=C1C3 CC1=C2OC3=C(N)CN=C3N2OC1 CC12OC3C4OC3C13OCC2CC43 C=C1NN=CNc2cc(O)ccc21 CC1=CNC(=N)C1=CN=NCC#N CC1=COC(=N)C=C(NO)CNC1 N=C1OC2CC3(C=C2C2CN12)CC3 C=C(C)C12CCC3C4=CC(C31)N2C4 CC12C3OCC4(O3)C1CN1C4C12C C=C1C2CC3=C(CCC13C1CO1)O2 CCOCC1=CNN(C)C1=CC=O O=c1[nH]c2cncc-2c(O)c(=O)o1 CC12COC3=C1C(=CCO2)CC=C3 CC1C(=N)N=C2C=C(O)C=C(O)N21 CC1Cc2c3c(c(Cl)c(=N)n21)OC3 N=C1C(CC=O)=CC2ONC=C12 CC12CC3C4(N)C(O1)OC2(C)C34O C1=C2CCNC34C1NC1C(OC13)C24 O=C1N=C2NC=C(O)N2C2C(O)C12 CN1CC2(C=CC(NC(=N)N)=C2)C1 OC12CC=C3C(CC4OC3C1O4)C2 CC1C2=C3C(N)C(C)C4C(C2)C1C34 CC1CC2(C1)C1C3CC1CC2(C)C3 CCC12OC13C(CC2=O)CN1CC13 C=C(C1=CNC(=O)C1=N)C1CC1 Nc1nc2n3c1CCN=C3OC=C2 C=C1CCC(C2(S(N)(=O)=O)CN2)C1 O=C1C2C(O)CC34NC(=NC23)OC14 COC12C=C3OC(C4C3C41)C2(C)N CC12CC3C4=C1CC1C(C4)CC1N32 C=C1C23C=CC14CC=C2C4(O)CN3 NCC1C2CC2N=C2C(=O)SNN21 NC12CC3C4CC1(NC(=O)C42)C3O OC1C=C2CC3CC=C2C2C1CN32 N#CC1C2CC1c1sc2c(O)c1O NN1CC23CNC1=NCC(CO2)O3 C1=CC2CC3CC24CNC(=N4)OC13 CC12C=C3C4CC1(CC4O2)N1CC31 ON=CN=Cc1ccc2c[nH]oc1-2 C1=NN2CCNCCNC=C1CC2 NC1C2C3CC14CC1C(C=C4O3)C12 N=C1NC(=CC=CO)C(=O)N1C=O CN1C=CC=NN=C2SC=C(C1)S2 NC=C1C(NO)=Cc2c(N)nsc21 CC12CN3CC14C=C(O2)C3C4C#N CC(C)=CN1SC(C)=C2CNN=C21 CC12C3=CCC(=O)C4(CC1C2C4)O3 C1OC2(c3nnns3)CC3C1C3C2 CC1C2C3COC4=CCC(N)(C42)C13 NN=C1OC2CC(C2)C1C(=O)NN OC12C3=CC4CC3C3NC1C2C3C4 CN1C2C=CC(C34C=NNC3C4)C21 CC1C=C2CC3CC2C3C#CCC1 CC12COCC(=N)NNC(=N1)OC2 O=C1C=CCCN2C=C(O)OC2=N1 NC1(c2cc(=O)n(C(=O)O)s2)CC1 c1ccn(Oc2[nH]cc3c2NC3)c1 Cc1c[nH]ncoc2coc(C)c12 CC(C1=CC2C=CC3C1N23)N1CC1 C=C1CC2=C3C4CC2(N)C4OC13C C1=C2CC3C4CC5(OC2CC15)C3O4 CN1ON=C2Oc3[nH]ccc3N=C21 NC12CC1(O)C=C1N=CNN1C2=O C1=NOC23CCC4=CC1(C2)N1C4C13 N=C1N=C2CC3C4C=NNC43C2=N1 CON1ON=C2C1=NC(=N)CC2C CC1=C(C=O)NNC(=O)CCN=C1 CCC(O)=C1N=NC(C)=CS1(=O)=O CC1=CC=COC2=NC(=CO)C=C12 CC1=CN=C2C(=NC(=N)S2(=O)=O)O1 NCC12OC3C(=O)NC1C(N)=NC32 C1C2C3CC4(CNC4)N4CC34CN12 CC1C2CCC3(OCCC34OC14)O2 C1=C(CC23CC(N2)C2CC23)OCO1 C1=NN=C2N3CC3C3C=NOC12O3 CC=CC(NO)=C(OC)C(C)=NC CC(C)=CN1C=C(O)C(=CO)C1=O NC1C2=C3C=CC1C1NC(CO2)C31 C1=C2CC34CC2NC32COC(C2)C14 C=C1CCC2C3(N)C(NO)=NNC123 CN1NCC23OC(CN=C12)C1NC13 NN=CN1NC2C3=CC4C(C3)C1C24 NC1C2NC3C4=CC2NC31CNC4 N=C(CC1=CC2NN=CC2=C1)NN NC1=COC2=NOCc3csc1c32 CC12NC3C4C5CC1NCC2(N5)C34 CC1=NC2=NCCCOC2=CN=C1 CC12C3C4CC(C5CCCC51N4)C32 CC1CC(C2=NC=CC2=CO)CN1 C1=C2CC3OCC4CC(O2)OC43C1 C=C1C2=C3C(O)CC4C(CC2)C1C34 N=C1C=CC(=O)NC1=CC=CNN C1NC2CC3N4CC1C2(C4)C31CN1 O=C1CCC23C4NCC2N2C4C2C13 CC12C(N)C3C#CCCNC1C2N3 O=C1NC2C=COC3COC1=C23 C=C1CNCC#CC2=NN3C(C2)C13 C1=NN=C2N=C(c3ncc[nH]3)C=C12 CC12C3NC4C1N1CCC4(C3O)C12 C1=C2C3CNC4C(CNCC3O1)C24 NC1=CC2=NC(=NCCCON2)O1 O=C1NSC2=NC3(CO)CCC3N12 OC=C(O)c1cn2scnc2n1 C#CC1=NN2OC=NN=C2C=C1O C=c1c2[nH]c(=O)n1OCCC=CC=2 CC1=C2CC(C)ON=C2N(N)S1 N=C1NC(=O)C2=C(O)C3(CN3)CN12 CN1C=NC23COC4CC(N=C12)C43 ClC1=C2OCON2C2=NCCC2=C1 CC12CC(O)C3(CC(=N1)N=CN3)C2 C=C(C)C1CC(C=NC)=C(C)NO1 CC1C=Nn2cc3c(N)n[nH]c3c21 c1cc2[nH]c1Cc1ncc(s1)CN2 CC1CC2(N)C3C4=CC1(C2C4)N3C CC1=NC2=NNCCCNC1=CO2 NC12CC3OC14C(=CC32)OC1CC14 CCCOc1c2[nH][nH]cc-2[nH]c1=O C=C1C2C=C3OC(O2)C12C=CC3N2 C1=C2CC3C(CO2)C2NC2C2C1N32 CC1C2C#CC3(N)CC(CN1C2)C3 C=C1CC23CC4CC1=C2C4C=NO3 O=CC1=NC2=COC(=CCNN1)C2 CC12C3CC(=O)C4(O3)OC1C(=O)C42 C=C1CONC1=C(C=NC)C=NO OC12CC3CC(=CC4(CC4)C1)C2N3 CC1=C2N=CC(O)=C2N=NS1(=O)=O C1OCc2[nH]nc3c2CCC3CO1 CN1C2=NOC3C4OC2=CC(O4)C31 C#CC(C=NN)N1CC2(C=N1)CN2 CC1CN2C3CN4N=CC=CC14C32 CC12CC34CC1C2C(CC3(C)N)N4 CC1C2C=NN3C(=N)N4CC4(C)C123 NCC1CC2=C3CC1CC3(N)CC2 Cc1ncn2c1C1CC(N=C2)C1=O O=C1CNC2C=C3CC2C2C1OC32 C1=CC23CC1C1C4OC=C2C4N1C3 C=C1C2C3NC4=NOCC1C4(N)C32 CC12CC3C4OC3(C=O)C1NN=C42 CC1C=C2C3=CC(=O)C4C1C2N4C3 C1CC2NC34CCC2C3N=C1NC4 N#CC1=C2C=C(CCONC=N2)C1 CC1C2=C3NC(=N)C2(C)C2CC3C12 NC1=C2CN(CC=CCC1)CC2=O C1COC2OCC3=C(CCC32)CN1 C1=C2CCC3CC1C1COC3(C1)O2 COC1C2=CC3CC4(CNC3C14)C2 O=C1CC2C3COC4C(NN1)C4N32 N=C1Cc2c(Cl)cc(=N)oc2N1N O=CC=C1C(N=O)=CNN2CC12 C1=CC2N(CC1)C1CC23ON=C1O3 NC12CNC3CN4CCN=C4C1C32 C1=C2CC3CC4C2=CC2CC4N3C12 CC1=CC2=C3C=CCC24CNC13C4 CC(=C1CC(C(N)=O)=CO1)C(C)O CCC12CNC3=C(C#N)CC(C1)N32 CC1=C(O)NC2=NOC(C)(C)ON21 CC12NC3C1C1C4C5CC1C3(C5)C42 C=C1C2C3C4=NOCC14OC23C=O C1=CC2CC3C4C=C(COC2C43)O1 O=COC1CC2C3CC4=C1C2N3C4 C1=C2CC3CC4C(CC2N34)OCO1 CC12C=CC3(C1)NN=C(O2)C3=CN CC1=C2CCC3CC(O1)(O2)C1CC31 CC12C=C(CO1)OCOCC(O)C2 CC1C=CCC2=CC(=NC1C)ON2 CC1C2CC34NC3(CC3CC34)C12 C1#Cc2nnc(s2)C=CC2(C1)CO2 CC12C3CC1C1OC4CC1(C3)C2O4 CC1C2CNC13CC1CC3C(=N1)N2 O=C1CC2=C3C(=CCCN13)CC=C2 NCCC12C3C4CN1CC1C(C32)N14 C=CCC1CN2C(N)=NSC2=NO1 CN1CC2C3CC1CCC#CCN32 CC1C=CNC2=NOC(=NN2)C=C1 CC12CCC3(N=C(NC3=O)O1)C2N C1=C2CCOC3=CCOC(=C23)C1 COC(=N)C1=CC=CNN=CC1=O NC12C=C3CCNC4C(NC41)C3=C2 CC12CC3(N=CN)C(=O)C1NCC32 Cc1[nH]oc2nc3c(Cl)cnn3c12 C#CC1=NN=C2C(Cl)=C(C)ON2N1 CCC1=C2CC3C4N=C2N(N)C4C13 COC(CC(C1CO1)N(C)C)=NO Cc1occc1C1=CNOC1CO OC12CCC3C4C5C(=CCC5C41)C32 C1=NC=C(C2COCCN2)C=NO1 CC12NC1C1=CC=NOCC=C2C1 C=COCc1[nH]c(=O)n(N)c1C=N NC(CC1=CC(C=O)NC1)=NO C=C1C2=C3C=CC2(N)C2CC3(N)C12 CN1CC12CC13CC2C(CC1=O)O3 C#CC12CC1N1C=C(OC)NC1=N2 CC1(C2=Cn3oc(=O)cc3C2)CC1 C=C1CC2NC23C2C4NC13COC42 OC1C23CCC14NN=C2C4C=NN3 CC(=N)C(C(N)=O)=C1COCON1 C1=NC2=NC3CC2(N1)c1sccc13 C1=CC2=NOC3(C=CC(C=C3)O1)C2 C1=C(c2ccoc2)C2OC2CNN1 N=C1C2=CC(=NN=CC3CN13)OC2 OC12C3CNC4C3N(CC13CO3)C42 O=C1CC2C3=COCC2NC2C1C32 CC1C2OCC3(OC34C=COC4)C12 CC12CN3CC4C1C1NCC3(C2)C41 N#CCN=C1CN=C2C(N)=CON12 C1=C2CCC3(O2)OC(CO1)C1OC13 NC1C2CC3=CC4CC(C=C3C12)O4 O=C1C=C2NCC3=NCC=C(C1)N23 CC1CC2=CC3(CN4CC(O3)C24)O1 Cc1cc2n3c1CCN=C3CCO2 C1=C2OCC3CN4CC4C4C1N4C23 C=C1CN=C2C=COC(=N2)CCO1 OC1CN2CC23COC(C2CC2)=C13 CNC1CN=C2N=NC(N)=CC=C21 CCC12C3C4C5C(CCC1C54O)N32 O=C1ON=C2NC=C(O2)OC2CC12 O=c1sn(N=C2C=CN=C2)cc1Cl C1=C2OC3OC2C2NC34CC2CC14 OC1C=C2OC3C4C5CC13C(N5)C24 N#CC(O)C1=C2NNCCC2N=C1 CCC12C(C)N=C3OCC(C1N)N32 NC12C=C3C4C5NC3(C1)C(C2)C54 CC(=O)C=C1C=CNC(N=CN)=C1 C1=COC2C3OC2C2C(=CCC32)O1 N#CCC1=C2OCC(C=O)=C2NN1 NC12CN=C3NCC14CC3C(C2)N4 C=C1C2C3=NNC4(C)C1N(C2C)C34 O=c1cc2cnnc-2c(Cl)c(O)o1 CC1(C)Oc2cn3c(=N)o[nH]c3c21 CC1C2OCC13C1NC2C3NC1=N C1#CC2C(=NN=CC=C1)C1CC2O1 N=C1c2[nH]cc(CO)c2NN2CC12 CC12C3CCC4C1C1CC4(O3)C2N1 NC1CCC2=C(C=NC=NN2)C1O O=CC1COc2c3ncnc-3on21 O=C(CN1C2C3CC(N3)C21)C1CO1 CC1C=C2C3OC14C2CC3C4(C)N NC1CC2(N)C3OC4CC(=C13)OC42 CC1=C2C3C4OC2(C=O)C4N2C1C32 CC1C2=C3CC1C1CC(O2)C31O CN1NC(O)=C2NCCCCN=C21 OC12COC34OC5=CC3C1OC5C24 O=C1C2CN3C4C5C=CC1(C4N2)C53 OC1C=C2CC3CN4CC(O2)C13C4 CN1C2COC3C4=CC(C)(C32)C1C4 C1=NN=C2C3C4OC3C13CC4OC23 N=C1N=Cc2oc3nn(O)cc3c21 C=CC1C(C)C(=O)C=C2C=CNN21 C1=COCC23N=CC=C2NNC3C1 Nn1[nH]c(=O)c2c(=O)cccnc21 NC12COC34OC1C=CC3=NNC42 OC12CCNCCC=C3CC1C2C3 CCCN1Cc2sncc2C=CN1 C1=NCC2C3C4CN5CC5C43NN12 NCC12OC3C4C1C1=NOC2(C1)C34 C=C1OC23C=CC4C2CC4(N)C1=C3 CCc1c(C(O)=CO)ncn1C=N C=CC1=CC23CCC4C(C(=N1)N2)C43 CC12NC3C=C1C(CC(=O)C2O)C3 C1=C2CC3=NC4CC(C4)N3C2CC1 OC12CC3C1CCC21NCC2C1N32 CC1=C(N=O)CC2(C=O)CCN2N1 CCC12CCC34CC3OCC41C2O Nn1c2ccc1N1CC(CCN2)C1 CC12CC3C4C5OC3(OC54)C1(N)C2 C=C1C2=Cc3[nH]c(=O)[nH]c3C1OC2 C1=CC23NC4(C=C2OC4)CC3=CC1 OC1C23C=CC(N2)C12OCC(C3)O2 C=CC(NNC)=C(O)c1ccno1 CC1C#CCOC2=NSC(=N1)N2O C=C1C2=C3CC1C1NN=CC31CO2 C=c1cnc(C)c2c1=NNC(=S)N2 CC12C=CC3(O)C=C4C(C3)C1CC42 C1CC23CNN=C(C4C1N42)C31CC1 C1=CC2C(=CC34CC3CNN=C24)O1 CC1ON=CC2CNC(=NO1)N2C CC1(C=O)C(O)=C(N)c2cnoc21 N=c1ncccc2sc(=NN)sc12 O=C1C=CCON2C=NC(=N1)O2 CC1CC2N=C3C=CC=C(O)N3C12 CN1C2C(O)C3=CC4(COC3O4)C21 C=C1C2=COC3C(C)N4C1C=C2C34 C=C1C=CC(=O)N=Nc2cc1c[nH]2 N=CN1C2CC3N4C(=O)NCC34C21 NN1CC2N=C1CCC#CC1CC12 CC1C2CCC3(CC34C=CCN4)C12 CC12CC3C4CC(CC1=O)(CC43)O2 CC(C=CO)=Cc1c[nH]oc1=NO C#CC1=C(C)N=C(NC(N)=O)C1=N CC1=C(C)NOCC(O)C(C)N=N1 C=NN1OC=C2C=COCCN=C21 N#CC1=C2OC(=O)C=C2CCNN1 CC12C(O)C3C=C4C(CC5C4N51)C32 CC1C#CC=CCC2=NC3C(N2)C13 N=C(N)C1=C(C2CO2)C(=CO)N=N1 C#CC12CC3C4C5=CC3(O1)C(C5)C42 N=C(N=C1N=CC=N1)C1OC=CO1 N#CCCN1N=C2C3NC4C2C4C31 C#CC12CC3=CC4(OC3)OC1CC42 C=C1OCC(NN2CC2)=C1N=NC C=C1NC2=NC3C=C2C2C1CC32N NC12CCC3=C4CC5C(C(O4)C31)C52 C#CC1C2C1N1C3CC3N2C2CC21 OC1=COC2=NCC=CNC(=S)N12 C=c1c(NC)c2c(n1C=O)=NNC2 N=C1C#CC(O)C(=N)C=CNN1 CC1C2N1C1C=C3OC(=O)OC32C1 N#CC12CC(N1)C1=CC23CC1CN3 CC1c2ccoc2C2=CNN(C)C21 C=C(N=C1Cn2nccc2N1)OC CC=c1ncc2c[nH]c(=NC=N)n12 C=COc1c2nc(C)nc-2on1O CCOc1cc(Cl)c2c(Cl)c1CN2 CC1C2NC34C5CC(C)(C5)C3C4C12 C1=NOC2=NC(=C1)COCCNN2 C1=C2C(=NNC23C2CCC3C2)ON1 CC1=C(CO)C(=N)CN(C=N)N1 CNN=c1o[nH]c2c1C(N)=CCC2 NC=C1NC(N2CC(O)C2)=CC1=O CC12CC3=C(N)OC=NN=C3N1C2 CC1C2NCC3=C2C2C1OC2(C)C3 CC1C2ON=C3C2C2CC4C3C4N12 C1=CNN=CCC2OCCC2N=C1 NC(c1nc(=NC=O)[nH]s1)C1CC1 Cc1[nH]oc2ncc(S(=O)(=O)O)c1-2 Cc1c[nH]nc[nH]c2nscc12 CCN=C1CN2C=CN(OC)C2=N1 c1sc2nc1OCC1=NCC(C2)N1 CC12OC3CCC4=C3C1C(O4)C2N N=C(N=CN)N1C2CC1C(O)C2=O OC12C3=C4CC1C(CCO4)C2CO3 C1=CC2OC1C13C=CC2(C1)ON=C3 NC1=CN2C(=NC3(CC3)C2C=O)S1 C=CC1Oc2sccc2C=C1NO OCC1C=C(O)c2cn[nH]c2CO1 CCC#CC1CC2=CON(C)C2=N1 C=CC1=C2N=CON=C2N=C(C)O1 C1=C2C3CC4NCCC2C4(CO1)N3 C=CC12C(=C)C3C=C(NC1=O)C2C3 NC12CCC34N=C1NC1C(OC13)C24 OC12CC3(OC=C1O3)C1(O)CCC21 N#CC12CC3(CC4CC41)ON=C2O3 CC1CC2C3C4C5OC=CC54C1N23 N#CCCC1=NN2ON=CC2=NC1 NC12C=CC3(O)C=C1C(OC3)OC2 COC1C2CNC3=CC(=O)C1N32 CN=NC=C1NNC2=C1OC(=O)C2 CC1=C(O)C(N)=CC2=NCC(C)N21 O=C1OC2=NNC3C1OC2C1NC31 CCC1=CC(=CO)N=C1OCCO CN1CC2C3OC4(OC=C3C14)C2N CNC1CC2=C3C(C=NOC31)CO2 C1=CCC23C4CC(C4C4OC42)N3C1 C1CON2CC3NCC4NC34C2=N1 NC12CC3OC14C1CNC4C3C2C1 C#CC1=NN2CCCCNN=C1O2 CC12C=CC3CC4N1CCC4(C2)N3 C1#CC2OC2C=CC2C3C=C1C2O3 C=C1CC2NCC=C3C=CC4C1C324 C1#CC2NC3C(OC=C1)ON=CC23 C#CC1=CSN2C(=CN)C(=O)N=C12 CC12CCC3C(C4=C1NC(=N)C4)C32 CC12C3N(CCC31O)CC1CCN12 CC1C2C(O)C3=C4C=CC2C4N1C3 C=C(CC)C(=N)c1cnc(=O)[nH]c1 Cc1c(C(=CO)NO)csc1CO C=C(c1[nH]c(C)nc1N=N)C(C)O N#CC1(c2csn3ncnc23)CC1 NC1CC23C4CC(N4)C24CC4NC13 OC=C1C=C2OC3OCCC3C2=N1 N=NC=C1CC(C2CC2)C(=O)NN1 O=C1C2CC1OC1=CC=C(CN2)C1 COC12C3=COC4(CNC1C42N)O3 CC1CC23C=C1C1CNC(=NO2)C13 OC1C2C3N2CC12CCNC1CC132 CC1C2=CON=NC2=NC12CCC2 NN1C(=O)C23NC(C4NC42)C2C1C23 CC1COCC2=CON=NC2=N1 O=C1CC23C=NN4CCC42CNN13 NC(=O)N1NCC2=C1C(=CO)C=N2 CC1C(O)=C(N)c2cnncc21 O=C1CC2N1C=C1CC3CC12CO3 Cc1cnc2s[nH]c(C(=O)C#N)c1-2 NC1C2NN=C3C2C1C1C(CO)N31 C=C1C2=C3COC2(C)C(C=O)C1O3 CNCC(=CC=NCCOC)NO O=NC(=C1NC=CC1=O)N1CC1 C=CC(=C)Nc1n[nH]cc1N=O CC1=C2C3CC(CC(=N)N2NC1)O3 OC12CC=CC=CC=C3CC1C2C3 CC1=NC(=O)C(N2C3CNCC32)=C1 CC1(ON=c2oc(C#N)ns2)CC1 CNc1nsc2c1C=C(CN)NO2 OC1CON=CNc2cnc1nc2 CCC1CC2(CN=C3SC=CN32)C1 COC1C2CN3C(=N)C(N)CN3C21 O=C1CC2C3C1C1=CC4C2C4C3O1 O=C1CC2=C(NC3CNN=C23)N1O CC12CC3(N=CN)CC(=O)C1N2C3 C1=COC2OCC3OCCC(=C32)C1 N=C1CC2=CC=NC=C(O)C2=NN1 CC=C1CC23NC2C2CC3(CN2)O1 CC1=NC=CCc2csn(c2=N)N1 CC12COC3CC4CC1C4(C)C=C32 CC12CCC3(CN(C1)CC31CO1)N2 CN1C(=N)C2CC3CC=C1C1C2N31 N#CC(=O)C1=CNC(C=NO)=CN1 C1=C2C3NC1CC21CNC3C2OC21 O=CN1CC2C3NCC4=C1C2C3O4 N=C(N)ONC1=C2COCC2=NC1 ON1C2=NC=NC3(C2)CC2NC3C21 C=NNC=C1C(=O)C(N)=NC1=CO OC1CN=C2C=CCC3=CCC1N32 NC1=NC=NC2C1CC(O)C2C=O CC1(C)C=C2C3CC(CN2C1=O)O3 CC1=C2C(=NC(=N)CC2O)N=NO1 CN1CCC2C34C=CCN3CCC214 O=C1NC2=CC3(COC4C(O2)C43)N1 C1=C2C3NC4C2C4C3C2CNCC12 C1NN=C2OC3CC14CC(O2)C3O4 O=CCC12NN=C3C1=CC1C3NC12 O=C1CCCNN=C2N=NC=C1O2 C=C1COC2CC3C1=CCC3CO2 N=C1C=CC2=C(CN1)C(=N)C(=N)N2 C#CC12CCC34ON=C(C(C1)O3)C24 N=CNC(=CC=CO)c1cn[nH]c1 CC12CN1C1C3CC24N=CNC3C14 C1=C2CC3C4CC2C2(C1)C4CCN32 CC12C=C3CC1C1C4=CC3(CO4)C12 C1=NN=C2CCN3C=NNC=C1C23 N#CC12CC3OC3C3(C1)ON=C2O3 CC1(N)C2(O)C3CC14C=CCN4C32 CN=C1C=NC(NC(C)=COC)=N1 CC1OC2C3OC(C#CC1N)OC32 O=C1CC2C=CC1=CNCC=NN2 O=C1C2=C3CC4CC(C24)C1(O)C3 C1=CC23CC2(OC1)Oc1nncn13 COC(Cn1cc2c(n1)OC2)=NO CC1=C(C(N)=CC=O)C(=N)CON1 C1=NN=CC12CC(C1CC=NN1)N2 CC(=N)C(C(=O)C#N)=C(C#N)NO NC12C3C4CC1(C=CCC32O)CN4 CC1NC2C3=C1CC(N)C3CC2O C=C1CN2C3C(=O)C4=CNC(C14)C32 CC1C2=C3OC(=O)C4C(C2)C1(O)C34 NC12C(=O)OC3CC1C1=CC32CO1 O=c1on(C23CCNC2C3)sc1=O OC12C#Cc3cnc([nH]3)CC(C1)C2 NCC12C3OC4(OCC=C4C31)C2N CC=C1CC2=C3C(C=NOC13)CO2 CN=C1CN=CN(O)C1=C(C)NO CC1=C(CC(O)C=O)N=C(N)C1=N CC1C=C(C=O)C2NNC=C2N=N1 C1=C2CNC3=NOCOC1CCC23 CC1C2C3NC4=NCCC1C4(C)C32 CC1C=C2C3CC1(N=C3N)S2(=O)=O CC12CCC3C4C(N=C1N4C=N)C32 OC1CC2C3CNC14C1OC1CC324 c1onc2c1C13CC1(CC1CC13)O2 C1=NCC2CC23c2nonc2ON13 C=C1C2C=C(CCNC=NO2)C1N C=CCNC1C(O)=Cc2ccoc21 N=c1n2c(c3ccsn13)C(N)C=C2 CC12ON=CC3(C=C(CN3)O1)C2=O CC1CC2CNC3COCC(=C23)O1 N=C1CC2C3C=CC2(C2CN32)N1N N=c1ccc2c(Cl)coc2c(O)c1 CC1=C2OC34OCC2C3COC14C CC1CC2C3C=CC4N2C4(C)C=C13 O=C1OCC2OCC3N4CC=C1C234 C=C1CC2(C)C3=NC1(C=CN3)C2O NC1C2COC=CC3C=C(O2)C1C3 NCC12CC3=C4CC(O3)C(N1)C42N OC12CC3C1C1C4C=CC1C3(C4)C2 CC1C2C(=CNO)c3ccsc3C12 NC12CC34CC(C5OC53)C1CC2N4 O=C1C2=CN=C1C1CC(C=CC2)C1 O=C1OCC2=NC3=NN4CC4C3=C12 C1OC23CNC(=NO2)CC1C1NC13 CC1C2C3=CCC14C3N1CC4(O)C21 CC1C=CC2(N)C3C(C4CC42C)N13 CC1=C2CC(=C1)C=CCC1CN1C2 CC1NC23CC1C1=CC(N)(CC12)C3 NC12CC3C4NCC5C(C=C41)N5C32 NC1C2(N)CC(=O)N3CC4OC4C132 CC1(C23CC2C2C4CCC3C42)CC1 CC1N2CC3C4N5CC5CC34C12C O=CC1C2C3=CC4(OC3)C1CNC24 CN=Nc1occ(C)c1NNC CC1(C)C2N=C3N(O)C(N)=CN3C21 O=CC1C2C3C4OC15COC4C5N32 CC12CCN=C(C1)NOCCNC2 CCN(C)C1=CNC2=NCC=CN12 CC1CC2(O)C3=C(CN4C3CC42)O1 CC12CC(=CO1)C=NN=CCCO2 CNC(=N)CC1CC2=CNSC2=N1 CC12OC1C1CC3C4=CCC2(O4)C31 NC1C2CN3C4C5=NOC(C24)C13C5 C1=Nc2sc3c(c2ON1)OCCN3 CNN=CC1=CONc2ccoc21 NC1=NNC(C2CC2)=C2CNN=C12 O=C1N=C2NC=C(OCC3CC13)O2 COC(N=CN)=C1NC=CC(=O)N1 C=C1C2=CC3C=CCOC1CC2C3 C1C2=NNC1=NOCC1CC1C2 CC1C=C2C3C4C(O)C2(CC34O)N1 C=C1C2C3CC14OC1C=CC4(O3)C12 CC1(C)NC1C1=C2NN=CC2N=C1 CNc1cc(Cl)c2c(O)c1OC2 N=C1NCCOC2=CCC3C2N3N1 OC12CC3CC=C(C4=NNCC41)C32 CC1=NC23CCC4C(C2)NC(=N1)C43 NCCC1=C(NO)CC2(CC2)N=C1 CC12C=NNCC#CC(=N1)NC2=N C(=CN1C2COCC21)C1=NOCO1 CC1CNC2=COC(O)=CC2=NN1 CC1=C2CC3N4CC(C)(CC24)C13N O=C1C=CC2(C=C3CCNN13)CO2 S=C1N2C=CC3(CO3)C2C2CN12 CC1C2CC#CCCCC(=N2)N1O CC1=C2CC3C(OC1)OCC1C2C31 N#CC1=CC(=N)CC(=O)C2CN2N1 C1=NC23C4CCC2N(C4)C2C(N1)C23 CC1C2C3CC2C2=C3OCCC21N C1=CC23CC4C(N2)C(C3)C2C(C1)C42 C=Cc1[nH]c(C(O)=CO)cc1CC CC1(C2CC3(C=CC=C3)N2)COC1 CC1=C2NC(=S)NCC=CC(O1)O2 CN1CC2OC3(OC2=N1)C(N)C3N C1=CC2=NOC=NC(=N2)CCCN1 CN=C1NC2=NCC3(COC3)N2S1 N#CC12CC3CC(=C1C3)C(=O)NO2 CC12C3ON=C4C(=NN)C3CN1C42 C1=NC2CCOC3(C=C2N1)COC3 CC12OC1C1C3N1C1C(N)C3(C)C12 C1=C2CC3CC4(CN5CC5C14)C2N3 C1=NN=CC2Cc3c(ncn32)OC1 C=C1CCCN=Cn2onc1c2=O C=C1OC2=C3C(OC2)C2COC13C2 C=NN=CC(O)=C1C=C(N)C(=O)N1 OCC1=CC2C3C4C(C1)C1C2N1C34 CC1C2CC34NC2(C)C(CC13)C4O C1=NCC2C3C=C(C=NN1)C2C3 C1=CC2C3OC4(C1)C2C3CC41CN1 N=NC=C1NC(=O)C2=C1CCNC2 CC1C2=C3OC1C1NC(C2)C31C=O C=C(C1OC12C=CC=C2)N(C)C=N CC12C3CC4C5C=C3CC5C1(C)C42 C1=NC=C2CCCCON=C2O1 CCc1[nH]c(=O)c(=NC)ccc1N C=CC1=NNC(C)=CC(C#N)=NC1 CC12NCC1C1=C(C(N)C=C1)C2O CC1N=C2NNC3C4=NOC1(O4)C23 CC1NC(=N)C(=C2CCNN2)C1N C#Cc1cn(N)c2c(N=N)[nH]cc12 C=CC12CN3C4C(=CCC1C43)O2 CC1CCC(C)N2OC(=O)SC2=N1 C#CCC1=C2CNN=C2N(C)N=N1 CC#Cc1nscc1C1=CNNC1 CCC1(CC23CN(CCO2)C3)CC1 Nc1n[nH]cc1C=C(O)C(=O)O CC12OCCC1N=C1C2=NON1N N=C1NC2=NCC=CC=CN2S1 C=C1OC23CC(=O)C4(COC2=C14)C3 CC1CC2C3=NC4(C)C(N3)C2(N)C14 CC12CC1NC13C4CNC21COC43 O=C1NC2C3=CCC4(O)CC(C12)C34 CC1=C(c2c[nH]c(CO)n2)CON1 C1=CC23CCC4C5C(=CC42)C1CC53 C1=C2C3NCC4(O1)OCC1C2N1C34 CCNC(=N)OC1=CC(=CO)N=N1 COC1=C2N=CON2C(=CO)C1=O CC#CCC1=C(O)C2=NCCN2S1 O=c1cc2c(NO)cc(O)cn2[nH]1 CC12C3C=CC45CC(CC41N)C2C35 CC1=C2NN(C)C(=O)NC=C2C=N1 C=CC1(C(=O)N=c2nn[nH]o2)CC1 C1=CN=CC2=NN3CC3CCC2=C1 C#CC(C=C(NN=C)OC=O)=NN CC1C2=C(NCC2)c2c(N)n[nH]c21 C=CC1OC2=C3CC4C1C2N1C3C41 OC1C2=NC3C4CCC13OC4ON2 Cc1[nH][nH]c2cc(C3CC3N)nc1-2 N#CC12CNC(=NCC=NOC1)C2 CN1Cc2c1ncc1c2C(CN)N1 O=C1C2OCC34C(=COC13)C=CC24 CC1(N2CC3ON=CC34CC24)CC1 C=NN=C(CO)C1=C(NO)CN=C1 C#Cc1c[nH]c(NO)c2ncnc1-2 OC1C2OC3CN4C2C2CC2C14C3 OCC1=C(O)NC2=NN=CC=CN21 CC12OC3CC14C1CC(N1)C4CC32 O=c1[nH]ccc2c1OC1ONC=C21 NC1C2CC3C(=CCC31N)NC2=O O=CC12NC3C=C(C1=O)C1C2C31O NC1C2=NN=CC13CC(CO3)N2O C=CC1=C(O)C=C(C)C2=NCCN21 CC12C=CCNC(=S)NC(=N1)C=C2 NC12CCC3=C4CC1C1C4N1C2C3 O=Nc1occc1NOCC1CN1 CONc1ccoc1C(N)=C(C)C CC12NC3C4C3N3C5C3C1C2(C)C45 C#Cc1cc(C#N)nc(N)c1C=N CC12CC(C1)C(C1=NC(=N)C=C1)C2 C1=CC2CC2(CN=c2[nH]nns2)C1 CC12CC(CC34CC3(O)COC14)N2 CC12CNC3(C(=O)NC=C3O1)C2O CCc1cn2[nH]cc(N)cc-2c1=O O=C1NCc2cncc3nsc1c23 NCC1C(=O)n2nc3c(c21)C(=O)N3 CC12CNNC=C1C=NC(=NO)C2 C1#CC2=CC(C3CC23)C2NC2C=C1 NC1C2=C3CC4OC1(OC2)C1C3C41 COC12C=NN=CCNC(=NC1)O2 C#CC12C3CC1(N)C(CN2N=C)N3 CCC=C(O)c1c[nH]sc1=NNC CN=CC=C1NC(=S)N(O)C1=NC CCC#CC1CC2=CNN=NC2=N1 CC1C2=CC3N4C2C(N)CC4C13N NC12C3=CCCC1=NOC2OCC3 C#CCCC1ON=C2SNC(O)=C21 OCC1=C2CC3C1CC1C=C2OC13 N=C1CC2CC=C3CNN=C(N1)N32 CC1CN2N=C3OC4(C=CC3O4)C12 ON1CCC23CCC(C2)OC1=NO3 CC1CC23OC4C5C2=CC1C3C45 CC=NN1C2Cc3c(ncn3N)C21 OC12C#CCNc3cc(n[nH]3)C1C2 Nn1cnc2c1C(O)C1=C2CON1 N=C1CC23CC(CC24CN14)NC3=O C#CC1=C(CC=CC)NN=CN=N1 OC12CC3OC4=NNC1C=C4C32 N#CC12C3CC4(NC31)C1CC(O1)C42 COC1(C)CCC2=C1NN=CN=C2 C1COC2C3C(C1)N1C4CN3C2C41 C=C1C2CNC3C4C5C2NC13CN54 CC12CC3C=C(C1CN)C1C2C31O CN1CCC2NCC3CCC4C1C324 C1=CC2C3CC4=CC2(NN=C4)C1O3 C=C(C)C(N=O)=C1NC(=O)C=C1N C=CCCCc1n[nH]cc1C(=C)O CC12C3CN4C(C3=O)C1N=C(N)C42 CC1CC23C=CC4(C2)C(O)CN3C14 CC1OC2=C3OC1C(=O)C3(O)CC2 C1#CC2=NC(=NCC=C1)C=CN=C2 OCC1=C2C=CC3(COC(C3)O2)O1 C#CC(=CN=NC)NNCC(=O)O NC1=CNC(=O)C1=C1C=NC=NC1 C=C1C=CC2=C(N)C(=N)N=C2N=C1 C1=CC2CC3C(=NN=C3OC1)CO2 C#CC1(N=Cc2cn[nH]c2C)CC1 CN(C(=O)NN)C1=CC2(C=C1)CO2 C#CC1(C)NNC(C)=CC(=N)C1=O CN(O)c1cc(Cl)c2cocc2n1 O=C1C2CCC3=C2C2C(C3)C(O)C12 COC12CC3(O)CC4=C(OC1C4)C32 CC1CC2CC3C4=CC2(N=CN4)C13 OC12C=CC3OC4(C1)OC3CC4C2 OC12C3=CC4NCC(C41)C2N1CC31 C1#CC2=NN=CN=C(NCC=C1)O2 CCC1CCCC2=C1N=NC=NN2 O=C1CCC2=C3N=CN=C3N=C12 CC12NCC3=C(OC4C3CC41)C2=O C1=CCC2=NC3C(CC=CC1)C3N2 O=Nc1scc2c1NOCC2CO C=C1C23C=CC14COC(=C2)C4CO3 N#CC1=CC2=C(C1)NN=CN=C2 CC1=C(Cl)C=C2CNN=C2C(=O)N1 C1OC23CN=C1NC1CC2CNC13 NCC12C3C=C4CC3C3C4CC1C32 C1#CC2C3OC3C(CCC1)C1CN21 CC12C3NC4CC3=CC1(C#N)NC42 O=C1NNC23CC4C5C2CNC13C45 C1=C2CCC3C4CC5CC3(C2)C1N54 O=CC12C3=NCC4(CC1CC42O)N3 C1CC2OC3(O1)C1OC1CC31CC21 C=CCC1ON=CN=CC=CNO1 CCC12CC3(N)C(N)=CC(=NN1)C23 CCOC1=NC2=CN(C)OC2=NN1 CN1C=CNC2=NOC(CC1=N)O2 C=C1C2(N)C3OC1(C1CC1)C(C)C32 NC12CC34CC1C2C=C3NC(=O)O4 CC12CCC3C4CCC31C(=NO2)O4 CC12CC3C4N(C1)C2(C)C3S4(=O)=O CC(CN)C1=C(Cl)C2=NCCN2O1 C=C1C=C2C=CC1c1c(Cl)c[nH]c12 CC1NN=C2C3=CN=CC3=CC21O C=C1N=CN=C1c1[nH]ccc1NO CCC12NC(OC(=N)N)=NC1C2O N=Cn1cnc2c1C=C(O)C21CC1 CC12CC1OC(C13CC1C=CO3)O2 CCC1=C(O)C2=NC(=O)C(C)N2O1 N=C1C=NC(ON=CC=CC=O)=N1 CCC12C3C4NC(C5NC4C51C)C32 CC1C2(C)CN3CC34CC3NC3C124 NCC1=NOC=Cc2c1[nH]sc2=O C=C1C2CC(CC3=NN=CCN13)N2 Cc1occ2c1C=CNOCC#C2 CC(C=Cc1occ(Cl)c1O)=CO CC12C=CC34CC1C1C3C1(C)CC24 C=C1OC2C3=C1CNC3COC2C NC(=NNCCC=O)C(=O)CO N=c1c(=O)n(O)n2n1C1C=CC2C1 C1#CCC2=NC=CC(CCC1)NN2 C1=CC2C=NNC3=NN=C1C(O3)O2 CC(N)=Cc1cc(C#N)c(N=O)[nH]1 OCc1nc2c3oncc3cn2[nH]1 C#CC#CC1=C2C=CNN=C2ON1 CC1CC2(O)C3CC4=NNC2C41C3 C#CC1=CC=NNC2=CC(C)=NC12 C=c1c(C)c2[nH]c1=NN=CCNC2 CC1OC2CC13C1NC1C(=O)N3O2 O=S(=O)(Oc1cc(O)[nH]n1)N1CC1 N=C1C=C2C(=NC3=COCC32O)N1 CC1CNNc2ccoc2N=N1 CNCC1=CC(N=O)=CNOC1=O C1=C2C3=NOC4(CO3)CC1CC24 Nc1c2csc1N1CC(CC=C2)C1 N=C1CNN2C(=NN1)C1C=CC2C1 C1CC2C3=NOC24CNCC3(C1)O4 O=C(O)C1=NC2=C(C=NO1)CCN2 N=c1c2nc(O)cn2c2cccn12 NCC1C2=CC3CC4(C=CC3C14)C2 C=CC1=C2C=NC3CC23C=NN1 CCN1CC(c2nonc2NO)C1 OC12CC34CC1C2C(CC=CO3)O4 CC1=C2C(=CC=NC2C=O)NOC1 O=C1NC2=C3C=CC24C=CC13NC4 C1=C2C3NC3C34CCCC1(C3)NC24 NC1CCCNN=C2N=CC(=N2)C1 NN1C2C(COC23CNC3)S1(=O)=O C=C1C2CC3=C(C2=O)C1(C)C=NN3 OC=CC1=C2CCN=C2N(O)C=C1 C1=C2C(=NC3CC2C2CC3N2)SN1 COc1cc(Cl)c2c(Cl)c1C(=O)N2 NC12C=C3C4CC4CN=CN3C1C2 CC1Cc2con(c2=N)N=CNO1 CCC1=CC2C3C4=NCC(C1)(N4)C23 CC1(C2N3CC4OC4C23CO)CN1 CCN=CC(=CNNC)NC=NC CC1CC2=CC=NNCC(=O)N1N2 C1=NC=NNC=C1CC1=COCO1 C1#CC2=CC3CC2N3N=COCC1 NC(CCC1OCC1=O)=NC=NO OC1CC12CC13CC1(COCO3)O2 C=C1C2=NNC13C1COC3C(C)C21 C=C1C2C3=CCC14C3CC2N4C=O O=C1NC2C3=NNC24CC(O1)C3C4 CNC12C3=COC4(C3)C(=N)NC1C42 N=c1sc2c(n1C1CC1)C=CNO2 NC1CC=CN=C2CC(=CC1)CN2 C=C1C(O)C2=C3CC4C1C2N4C3 C1CC2C3CC4C5CC(C5O3)C24N1 O=C1CON=CC2C3N=C(N1)NC23 CC1=CC2(O)CC3NC4CC13C=C42 CC12CC3C(O1)C1COC4CC41C32 O=C1CN2C(CCO)C3NC=C1C32 CC1=CC(=O)N2C(O)=CSC2=NN1 CCC1C2CC3=CC4C(N)C31CN42 NC1C2C#CCCc3cc([nH]n3)C12 CNN=C1C2=NCC3CC(C1C)N23 O=C1NC=CC1=NCc1ccsc1 CC12CCC3(CO1)NC(NN)=NC32 CC12CC(=NO1)OCCNCC2N CC1COCON=C2N=CN3C2C13 C=C(C=C1CC2=C(CCC2)C1)CN CC1=C2C3CC4(CO1)NCC3OC24 COC12CCC34OC3C3NC3C14C2 CC1(c2nc3sccn3c2O)CN1 CC1=CC2CC=CC3CCC(=C23)C1 C#Cc1nc[nH]c1C=CNN C=CC(NN=C)=C1C=NCC(=C)O1 C=C1CCc2snc(c2O)NNC1 CC1=CC2=CC3C(C2)N3N=CC=C1 ON1C2=COC1=NOCCC1CN21 CC12CCC3(C#N)C=C1C(=NO2)O3 CON1C=CC23CC(N=C12)C(C)N3 CN1N2CC2c2ccsc2S1(=O)=O C1=C2OCOCC3=NOCC(C1)N23 O=CC1Nc2c1cn1c2ONC=N1 N=C1OC23COC(C=C2N1N)CO3 CC12N3CC(C3)C13NCC(O)C32O S=C1NC2=CCC3=NN=CC(N1)C23 N=C1C=COC23C=C(N1)C(CO2)C3 C=C1C2=CC=CC3(O2)OC1C1NC13 NC1C2=C3CNC4C(CC2)C1C34O CC12CC3CN=C(C(=O)C1CO)N32 OCC1=C2NNCC2(C2CN2)N=C1 C#CC12CC3(CO1)C(=O)N=C2N3O O=C1C(O)C2=CC3=NNC4C1C2C34 CC1=NNN2CCC(=O)C=CN=C12 C=C1C(C)=C2C3NC14C(=O)C3NC24 O=C1C=CC2C3C4=CC(C=C4)(C1)N23 C1=NNC2CN3CC14CC(=NN4)C23 CC1OCCOC2CN=C(NO2)O1 OCC1N2CCC13OC1OC3CC12 CC1C=CC23CC=C4CC1(C2)NC43 C1=C2CN3C4C5OCC4C2(OC1)C53 C=C1C#CC2(CC#CC(N)C1)CN2 CN1CC#CCC2(C#CC1=N)CN2 C=C1C2CC3=NC4C2COC14CN3 CC1=CC2=CNC(C)=C(C)C2=NO1 NC12C3C4=NOCC1(O)CC(N4)C32 NC1CC23CC14COC(=CO2)C3N4 CC(NO)=C1C=NC=C(C=O)C1C CC12CC3CC(O1)OC21CCC=C31 CC1=CNc2cc[nH]c2N=NC1=O C#CC1=C2C3C4C(N)C2(CO1)CN34 C#CC1CC2C3CC1C21CC3=NO1 OC1C2C=C3OC(CCOC2)CC31 C=C1C2C=C3OC2C2C3C12CC#N CC12CC3CC4(CN31)OCC2CO4 O=c1scc(C(=CO)C2CCN2)s1 C1CC23CC45COC2C4CN3C1C5 OC1C2CC3N=CC4=CNNC43C12 C1=NNC23C=C1C1C2N1CCOC3 CCOC1=C(NNC)CCC1=NC CON(C)c1cc(Cl)c(=O)ccn1 NNC=C1CNc2ccc(N)nc21 CC1=CC(=O)C2=C(O)C(C)(C)CN12 C#CC12CC=C3C4=CC(N)(C1C4)C32 N#CC1CC2=CNOC(=NO)C2=N1 C#CC1=C(CO)c2n[nH]cc2NN1 OC1CN2C3CCC4COC1C432 NCC1CC23C(N)C2(N1)C1CN3C1 CC1CCCC(O)=Cc2cnsc21 CC1C2(C)CC3NCC1(O)C3=NO2 OC(C1=COC2(CC2)O1)C1CCN1 NC1=C2CON=CNCC1=NC2=O CC1=CON2Cc3nonc3N=C12 CC1C2C3(N)C=CC24CN1C3C4N C=C1C2OC34CCC(C2=C(C)O3)C14 CC12CN3C4C=C(C=CO1)C2(N)C43 OC1C2CC23COC2(CC2)C32CC12 CC12C3COC14CC4CC1CC1N32 C1=NOC(Nc2ccccn2)=NO1 CC1C2CC3=NC1(C(=N)N2)C(=O)N3 OC=C1CCC2=C1Cc1cscc12 C1OCC2C3CC(=NN4CC14)CN23 O=C(OC1=NC=NC=NN1)C1CC1 CC#CC1OC2C3CC4=C1C2C3O4 CCN=c1[nH]cc(C=N)n1C CC1OC23CN4C1C2(O)C4(C)CO3 CC1=C2NCC3(CC3)N=C2N(O)N1 C1=C2C3OC3CC3C1CC1C2N31 CN1N=C2C3CC(C3N)N2OC1=O CNC1=C2C(=CN=C2NC=O)OC1 C1CON=C2CN3CC(=NO1)C2C3 CC(O)C1N=CN2NC3(C=C12)CC3 CS(=O)(=O)C(C=O)=C1N=NC=CN1 C1=C2CCC1OCC1COC(=N1)N2 C1=CN=C(CN2CCC=N2)NCC1 C1=CCC(CN=c2nn[nH][nH]2)=CC1 C1=C2OC3CC1CC31CNC3C2C31 C=CC1CN2C(=O)C=C(N)C2=C1O C1#CCN2C=NN=CN2C=COC1 C1=NNCC12CC1OC23CC1=CO3 COC1OC(=C(C)O)c2cocc21 CN=C1C(=CO)C=CC2=C1CC=C2 C=C1CC2OC34CC(ON=C13)C2C4 O=C1C#CCN2CC(O)C(=NN1)N2 O=CC12CNC3CC1C1=CC32NC1 N=c1nc2c(c(C=O)o1)NS2(=O)=O CCNN1NC=C2CCCNN=C21 CC1C2OC23C2NCC2CC32CN12 C(=NC1CNC1)N=C1NCCCN1 C1=COC23CCN4C5C(CC42C1)C53 NC1C2=CC3CC4(CC1CC4O3)O2 O=C(CO)C1CN=NC=C(NO)C1 C=CC=C(CO)c1n[nH]c2c1NC2 NC1C2=NC=CC=NNC1C1CN21 C1=CC23NCCC=C2C2C=C1C3C2 O=CC1C23C=CC(=C2)C(O3)S1(=O)=O O=NC=C1CN2CC(C2)C(=O)ON1 C#CCC1C2OC3=C(O2)C1(N)C=C3 O=C1NSC2=NCCCCN=CN12 O=C1Cc2c1cc[nH]c(=O)c2=O NC12C=C3OC(=O)CC1C1C3N1C2 CC1C=CC2C3(O)C(OS2(=O)=O)C13 C1=NC2=NOC3C4OCC(C43)N2O1 CC12CC3NC4CC5C(C4=CC31)C52 N#CC1=CC2=C3C1OCC3C(O)C2 CCC1N=C2C=CNC(O)=C2C1O CS(=O)(=O)C1(O)CC(=N)C=C1NO CC1=CC2C3C=C4CCC(C23)C14N CC12CC34C=CC5C1N5C3C2=NO4 C=C1OCc2cc3n(c(=O)c21)CC3 CC1OC2C3OC4C5CC2C1(O3)C54 CC1C=C2C=CCc3nnn(c32)N1 COCC(O)=C1COc2nocc21 NC1CC23C=C4COC1(C2)C4=CO3 O=CC=CNn1[nH]c2c(c1=O)NC2 CC1CC2=C3C(=NOC3C)N=C2O1 C=C1CC23C=C(CC(C=C2C)C3)O1 C1=CC23NCC4C(C5CC2N5)C43O1 CC12OCC(NC=NC=NO1)C2O CC1C2OC3(C)CC4CN1CC42O3 CN1CC2=CC(=O)C=C(N)C2=CN1 CCC(O)C1CN2C(O)=CSC2=N1 OC1CC12N=CN=CC1=CNOC12 CC1C2OC3OC4(CNC4=O)C2C31 COC12C3=C4CC(OC1C4)C2CC3 C1CC2COCC3=C2C(C1)COC3 NN1C(=C2CC=CO2)C=CS1(=O)=O CNCC1CC2C3=CC4C1C2N4C3 C=COC12C3=NCC1C(C)C2ON3 CC1(C2C3C(=O)N=C(CN)N32)CC1 C1=NC23C=C4CCOC4C2C3CN1 CN1CC(C(=O)C=C2NC=NN2)C1 CC1=CC2OC13CNC(=C2C=O)O3 CC1N=CN=C2C=CC(=N2)C=C1N NC1C2CC3NC4=NC1(CN4)C3C2 O=Cc1[nH][nH]c2cc(N3CC3)nc1-2 O=C(O)C1=C2N(C=NC1)CC1CN21 C1NC2C1N=C1N=C3NNCC3C12 C1=NCC2=C1C1CCC1CCNN2 CC1=NC2COCC3=C2C(=N1)NC3 C#CC=CN1C(N)=NC2=NCCN21 CC12C3CN1C1C3=C(C=O)C3C1C32 CC12CC(C=CN(C(=S)NO)O1)C2 CCCc1nnc2n(O)n(C)cc1-2 O=C1CN=CN=NC2=CNOC2C1 CN1N=C2C(N)C13CNC1C3C21N C=C1C2(N)C=CC3=C2C2OC3C12O O=NC=C1NC2=C(OC=CC2)C1=O COC1=C2C3C=CC1(O3)OC1CC21 CCC1(C23OCC(O2)C2OC23)CC1 OC=C1N=C(C2CO2)c2ncoc21 Nc1c(C=CNO)[nH]c2nocc12 C1=CC2=CCN=C3CCN(CC1)N23 CC1=CC2=CCC34CC2C(OC13)O4 OC1C2=CC3CC3C3(CC1CO3)O2 CNC12CCNC3CC(C1)C(C)=C32 N=C1N(N)C(=N)C23CC12NC1CC13 NN=CCCOC1C=CC(=NN)O1 O=C1NCCC#CC2=CCC3C2N13 OCC12CN3C4C3C1N1C4C=CC12 C#CCN=C(N)NC(=N)C=C(C)C C1=COC2=C(CN(C3CNC3)C2)O1 C1=C2CC=C(OC2)C2CC(CO1)O2 N=CN(O)C12CC=C3C4C1N4CC32 Cc1cc(O)c2c(O)c1NC=NO2 CC1=C2CC3(C=CC(C3)C(=O)O2)C1 CNCc1cc2c(N=O)snc2[nH]1 C=C1C23CNCC2C2C(OC3)C12C C#CC1C2=CC(O)C(=O)N2N=C1N O=C1CC2=CN1C=CC1CC1NC2 COC(N=CN)=NC(=O)C=CCO CN1C2=NC3CC3ON=CN1CC2 C=CC12COC3(CC4C=C1C3O4)O2 C1=NOC2=NC34CNC(CC13)C4N2 CC1=Cc2coc(O)c2N=C(C)O1 OC12C3=CCCC4COC1C2N4C3 N=c1ccnc2c(c1Cl)OC=NN2 OC12C3CC4OC41C1(CC1)CNC32 C=NN=C1OC(=CO)C(C)=CC1=O O=CC1Cc2cc(O)c3n2C1CC3 C1=CC2CC34CNC2(CCC1C3)C4 CC1(O)C23CCC(O2)C2CC2C13N CC1NC1C1=C(O)SN2CCN=C12 C=C1CC2=CC3C4CC5C4CC13C25 C1=CC2CCC3=CNC(=NC1=N2)O3 CC1C2COC3=CC=C(C3)OCC12 CC12CC3=C4C5C(O)C3C5C1OC42 C=Cn1[nH]c2c(c1=N)C(=N)C(C)=C2 C=C(N)c1oc(=O)cnc(=O)c1Cl ON1C=NCC2=NCC(=CC1)N2O Cc1c(N=O)ncc2c1OCON2 C=NN1C=C(NC)N2C1=NC1CC12 CC12OC3=C4OC1C(C4C=O)C2C3 CC=CC1N2C=CC3=NN=C(C)C312 C=C1N=C(C)c2cnc(N)c(O)c21 N=C1CC2C3CCC2C3N=C(N)N1 C1C2NNC3=NC4(CC4)C1N1C3C21 C=CN1C(C)=CN2C=NC=NN=C21 C=CN1NC=CC(=NC)COC1=N CC12C3NCC45CCC(CC34)N1C52 C1=CC23CN4CCC(O1)C4(CN2)C3 CC1=NC(N)=C(C)C(C2CC2)=NO1 OC12CC34CC1C1OC3(CC1O4)C2 CN(CC1=NOC=NC=C1)C(N)=O CC1C2OC3CCC14OCCC2=C34 N=CN1CC2OCCC=CC=C1O2 CC12C=C3OC4CC3C(C)(O4)C1N2 N=C1NC2=COCC3COC4C1C234 CC1NC23CCN=C2C=CNOC13 C=C1C2=CC3C4C=NNC1(C=C2)C43 OC=C1N=C(CO)C=C1C1CC1 CN1CC12C1C=C3CCC2(O)C3O1 C=C1CC2C3=COC24CCC13C4O CC1C2CN=C(CCC3CN1C3)N2 CC1C2=NOC3C=C4CC1C(C4)C23 CC1CON2C(C)(COS2(=O)=O)C1 CC12OC=CC3=C1C1CC2(C)C1C3 CCC1C2=C3CC1CC3(C)CCC2 CC(=CCC1=CNC(=N)C1=N)CO Cc1c2c(cncc1=O)N(N)C2=O C=CC(CC)NCC(=CC=N)NO C=CC1=C2C=CCC3(N)CC1C=C23 N=CC1=CC(OCC=O)=CNN=C1 NCC(N)C1=C(O)N2CCN=C2S1 CN=C1C=CN2NC=NC2=C(C)N1 O=C1C2=CC3C1N1C2CC2(CC2)C31 N#CC12C3=NOC1C1OC=C(C3)C12 C1=NCC23C(CN12)C1CC2NC1C23 CC12C=CC3C(C4=CCC31O4)C2O Cc1cc(-c2cc(=O)[nH]nn2)no1 OC12CNCCC3=NN=C(C3)C1C2 CC1C=C2C3CC4C2CC(O)C14O3 CCC1CC2CC13N=C(C=C3N)N2 C=C(Cc1[nH]c(C)nc1N=N)OC CC1(C2=CC3C(=O)NC=C3O2)CN1 C1N=C2NOCC3OC3CC1CO2 CC1NC2C3C14CN=C(N4)C23C=O CN1CCCC#Cc2nn1[nH]c2=O C1CC2CCNC3(C1)C2=NN1CC13 O=C1C2=NC3CC4(CC3OC14)NN2 CC1C2=C3OC1(C)C(C)C3(C)NC2 CCC1OC2C3OC4C2C4(N)C=C13 C=C1C2NC3=NNCC1(O)C3=C2C C1#CC2NCC3C(CC4CC14)NC23 C=C1C2CN3CC2C2=NN4CC4C123 CC12C3=C(C#N)C4CC3NC1CC42 N=C1NC(=CO)C(=O)C(CO)=C1N C=C(CC#N)Oc1n[nH]cc1C=N C=CCN=c1c(=O)c(Cl)c[nH]n1N N=C1Cc2cnnc3c2C(=CC3)N1 CC12CC3C4(C=CC31N)COCC42 C=C1CC2C3CC1OCC#CCN23 CC12C=C3OC4=NOCC4(O1)C3O2 CC1=C(N)N=C(C(N)CO)ON=C1 N=C1C=CC(=O)C(=O)NC1=CO CC1CN2NN(C)C(=N)C2=NC1C N=C1CNC(N(O)C2=COCC2)=N1 C=CC1NCC=CN=C2CC1CN2 C#CCNNC=C1C=C(N)NC1=O NC1=CN2CC3(N)CCC3N=C2O1 N=C1NN2C=NNCCCC1=CC2 CC(=O)S(=O)(=O)C1=C(NO)CN=C1 OC12C=CC3C4=CC1C2(O)C3CO4 CC#CC1=C2N=CC(O)=C2OC1=O CC12C3CN1C1(CC=CC2(O)C1)C3 Cc1nc2c3c(ccc2s1)OC3=O c1nnnc(=NC23CCC(C2)C3)o1 C1=NN=CCC2=NN=COC(=C2)C1 NC1C2=CC(OCOCCO2)C1N O=C1CC(C2=C3OCC=C3C=C2)N1 C=C1CCN2CCC(=N2)NC(C)=N1 N=C1C=C(N)NC2=C(N1)C1CC2N1 C1=NNC2CC=C3OC2CC2C1C32 CN1C2=NSC1=NC1CC1CCC2 C=CS(=O)(=O)C(=O)C=C1C=CNN1 O=C1C=CNC(N2C=CCN2)=NO1 NC12CC1C13CC1CON3C2=NO C1=C2OC3OC1CC1CC2CNC13 Cc1[nH]cnc1C1=NCCC1=NN CC1(C23CC2C2CC4C(C2)N43)CO1 CC(=NC(C)C1(N(C)C)CC1)NN C=c1[nH]c(=C(N)C#N)c(=O)n1C=O O=C1C2=C(N3CC13)N1N=CCC1C2 C=CCC12ON=C3C1=CC1C3NC12 NCC12CC1CN=C1C(=O)NSN12 C1OC2OC3CC4NN=C1C2NC43 NCC1=C2C3CCC1N1CC(C3)C21 O=C1OCCN=CC2=CNN=CN12 C=NNCc1ccnc(N)c1C=N C=C1C2=CC34CC(NC13)C(O2)C4=O CC1CC(C)OC(=O)CCC(N)=N1 N=C1C=CC(=O)N(O)C1=CNO Oc1cc[nH]c1C1=CCC2CN12 C=CC(C)C1=C(O)Cc2cc[nH]c21 C#CC1=C(N=O)C(=C(C)N)C(=O)N1 CC1=CCC2=C(N)NC(=NOC1)S2 O=C1CC2(C#CC#CC=CCC2)N1 C=C1C2CC3CC4=CC1(O)C3(C2)O4 CC12C3OC1C1CC4NC(CC13)C42 C=C1C2CC3(NC2=NC3C)C1N C1=CC2=NC(C=COC2)CC=NN1 C1=CC23CCC(O1)C1=CC(C=C12)C3 NN=C1CCC2=CCOC(N)=C21 CC=NNC1=CC(C)=NCC2OC12 N#Cc1[nH]c(N)c(C#N)c1C=N CC12CC(N)=NC1S(=O)(=O)C2(C)O C1#CC2CN=C(N2)Oc2c[nH]c1n2 CC12CC3=NOC=NNCC1N2C3 C1NN=C2NC3CC14CC(O2)C3O4 CN=C(CNC)N=CC=CNNC CC1=CC2C3(O1)OC1CC1C23CO C=C1C=C2C3C4OC2(OC43)C1=O C=C1OC2CC3C4C5C=CC1(C24)N53 NC(CC1(CO)CC(C=O)C1)=NO NN1C2C3CC3CN3C2C3S1(=O)=O CC12CCC3C4CNC5C4C5C31O2 CC12NC3C4=C1CN1C4C1C32 CC1CCNC=C2CNC(C1)C2=O CC12NC3C=C1C(C3)NCC2C=O C=C1C2NC34CC2C(C3)C(C#N)C14 OC1C=C2CN3C1C1C(O)CC2C13 Cn1ccn2ccc(=O)c-2nc1=O CC1CC2=C(N)CN=NC2=CNN1 O=C1C2CC34CCC5=CC3N2C5C14 CN1C=CC2CNCCNNC1=N2 CN=CC1=CC(C)=CNOCC1=O CC12CC1C1=C(N2)C2OC2CC1=O CC(C)NNC1=Cc2nc[nH]c2C1 CCC1CC12N=CN=NC=C2NO C1=NC(=C2OCc3nocc32)CN1 N=c1c2c([nH]n1C1CC1)C=C(O)C2 C=C1C=CC2=CSC(=NNC1)N2 C=C(C)c1c2cnnc-2sn1O C1CN1C12COC1C1OC3C(O1)C32 NN=CC1OC=C2CN(N)C(=O)C21 NN=C1CC2=NC=CCOCC1N2 NC1=CON=C2C1=NOC1C(O)C21 C=CCC12C(O)C3C1C(O)C1C2N31 CC1(CCN)CC2=CNN(O)C2=N1 CC1=NN2C(C3CN13)C21C=CC=C1 CC1C2(C)N3CC(CCO)(C3)C12C CC1OCCN2C3C12C=CS3(=O)=O NN=C1C#CC#CCCC(=NN)O1 CNC12C3OC4(C=NN=C4C31)C2C CC1=C2C(=NC=CN1)NNC2CO C1#CC2=CC3CC2C(=NN=CC1)N3 C=C1C(=O)Nc2ccc(N=N)cc21 NN=CC1=C(S(=O)(=O)NN)CCC1 NC1CN=NC2=C(C1)NOCC2O O=C1CC2C3OC4=CCN2CC13C4 C=CC1C2C3C4C=COC2(CN13)O4 OC12CC(C1)C1=CC3C4OC12OC34 NC1=CC(=O)C(=C2N=CC=CN2)N1 CC1OC2CC23CC2C4COC13C42 Nc1nsc2c1C(=CNO)C=NC2 C#CCN1ON2CC=NN=C2C1=O CC12CN3C4C(=CC(O)CC1C43)O2 C=C(C#N)C1=CC=C(C#N)C=NN1 OC1CCCOCC2=NN3C(C2)C13 C1=C2C(=C(C3CC3)C1)OCC1NC21 C#CC1NC2C3OC1(OC3=C)C2O O=NC1=C(NO)C(CCO)NC1 C=CC1=C(N)NNC=NC(=C)C1=O C1C2NC3C2N2C4CC4N4C3C4C12 CC12C=C3C(O)(COC3(C#N)C1)C2 CC1=C2CN3CC4CCC3C4(C1)C2 C1=CC2C3=COC4(C3)ON=C1C24 O=CC1N2CC34C=NOC13CC2C4 C1=C2CNC(C2)CC2=NN=C(C2)O1 CC=C1C2NC3CCC1(N)C3=C2C C=C1N=C2C=CNCCN=CN1N2 C1OCC12C1OC3C4OC4C2C3O1 NC1=C2CONC=C2N(O)S1(=O)=O Cc1sc(C=CN)c2c1OC=NN2 N=C1NC(=C(O)CO)c2c[nH]cc21 CON1CC(=CNO)C=NCC1=N C1=COc2snc3c2C(C3)ON=C1 C=C1C23C=CC14NCC2C4(O)C=C3 OC12COC1C13C=CC2C1=CCN3 NC12C3CCN4CC=C(CN3)C1C42 CC1C2=C3C(=O)OC4C3C(O2)C14C CC1C2C3NC14C=COC1CC14C32 CCNc1n[nH]c(C(O)=CO)c1O N=C1CC23CN2C2CCC3(CC2)N1 C1=CC23NC=NOC4C(NC42)C3=C1 CC(=N)C=C1CC2CCN=C2NN1 CC12CC3CC14CCNC41CC1N32 CC1C2C(N)C(N)=C3CON=C3N12 CC1=C(N)N=NCC#CC(=O)ON1 C#CC1=NNN2C=C(OC)CN=C12 NCC1C2C(=O)N=C3C4OC4C1N32 CC1(C)CC(CN)C(C=CNO)=N1 CN1CC2=CN1C=NC(=O)OCC2 C=CC1=C(C(=N)N)NNCCN=C1 C#CC1C2C3C(CO)C4(O)C1C4N23 CCNC1=C2CCN=C2N=CC=C1 O=CC1=C2CC3(O1)OC1CC3(O)C21 CCCC#CC1=C(N)C(=N)C(=N)N1 CC(C)CN1ON=C2N=CON=C21 CC12C=C3OC4CC1C4(CO)C3=C2 NCC(=CC1=CC=NS1(=O)=O)CN CC12CN3CC1C1=C(C=CC1)C32C CN1C2C1C13C=NN=CC2(CO1)C3 O=CC1N=C2NOC13CC(CO3)O2 CC1C(=O)N=C2N3OC=CC3=NN21 CC12OC3=C4CN(C1C3)C2C1CC41 CNC1c2[nH]ccc(=N)c2C1(C)C COC12OC3=C4OC1C1C4NC3C12 OC1CNC2=C1Cn1ccc(Cl)c12 NC12COC3C4(CCO4)COC31C2 N=C1C2C=CC(C3OCC2O3)N1N N#CCNNC1=NC(N)=C(C#N)C1 OC12C=C3CCC1C1OC3=CC2O1 O=CC1=c2c(=CO)ccn2CC1O C=NN1C2=NC3C(O)C2C2C3CC21 C=CC1=CN(C)C(=CC)NC1=NC Cc1[nH]nc2c1C(=N)C(=NO)C2O C=CC(CC)C(C=N)=CNNC=N C1C2NC34CC2OC2CC3C2NC14 C=CCC(=C)C1=NOC=NC(N)=C1 O=CN1N=CC(O)=Cc2cscc21 CC12OC3(C=CCO)C4C1N4CC23 C=C1CC(NN)=C2C1=CNS2(=O)=O C1=CN=C2CCCC(OCC1)ON2 OCC1=CC23CCC(C2)N=C(C3)N1 CN1CC2CC3N=C(N1)C1C3N21 CC12C3CC(=N)N1C=NCCNC32 C=NN1CC(N=C2C=C(N)C=N2)C1 COC1=C2C3NC4CC2(C=C1)OC43 CC=Cc1coc2c1NN(C)C=C2 CN1C2=NC3COC4C3C(N2)C41C CCC1C2CC3=C(C(C)=NC3=O)C12 CC1=CCN2C(=O)NSC2=NC1=N CN1C2C=Cn3nnc(n3)CCC21 Nc1cc2nc(=O)ccc-2c(O)[nH]1 C=CC12CC34CN1C2C3=CC=C4C NC1C2=CCN=C2n2c1nsc2=O C=CC1C(C(=N)NC)=C(C)NN1C CC12CCN3CC3C=CC(=NC1)N2 CCc1sc2c(c1CC)C=C(O)C2 CCNCC1=NC(=NC)C=CNO1 O=C1CC=CCNC2CNC=C1C2 CC1=CNCC2=CC(=CC1=O)CC2 CC1=NN2CC3NC3C2=NC(N)=C1 C=CC1C2N1C1=NCC3CC2(N)C13 C1=C2CC3(CO2)OC2C1C2C31CN1 Cc1cc(Cl)c2c(n1)N(C)NC2C CC1C2N1N=C1OC3OC12C1OC31 CN=CC(CCO)=C(COC)NN C#CCC1CN2NC(O)=C(Cl)C2=N1 CC1=C(O)C2=NNCC(O)CN2O1 C1=NN=C(C2OC=C3N=CNC32)C1 CC12C#CCCc3cc(c[nH]3)N1C2 O=C1C=NC(NC2=CC3CC3C2)=N1 CC12COC=C3CC(CN4C3C41)N2 C=CC1=CC2C3C4C(=C)OC13CN24 CC1OC2=CC3C4C2C(CN34)C1N CNCC1=C(C)N=NC(C)C=NN1 NC12C3C4CC3N3CCNC4C1C32 O=C1OC(=CO)C2=C1OC1CC1C2 C=C1CC2NN=C3OCC4C(O1)C324 C=Cc1nsc(C)c1C(N)=CO C=C1C23CCCC2C2N(C3)C12C CN1C2=CNC1=NNC1CN(C2)C1 OC1=CSN2C1=NC1C3CC(N3)C12 CC(C)C1=C2C3C4CC2(C=C1)CC43 CC1(C)C(N)C2(ON=CNO2)C1N C#CC1=C(NO)C(N)c2c[nH]nc21 CC1OC2CC3CC4C5CN4C31C25 C=C1C2OC(=O)OC3=CC4C1N4C32 CN=C1C=NC(C2(C)OCCO2)=N1 C=C1OC2=C(CC(N)=N2)C1C(=O)O N=C1N=CC2=CC(N3CC3)C=C12 CC1C23NCCC2=CC2NC2C13O Cc1c(CCN)sc2c1NOC=C2 C#CCC1=C(N)S(=O)(=O)OC1=CO CC12ON=C3NC1(C)C1CC3C1O2 COC1C2NNC(N3CC3)=NOC21 N=c1c2c(N)on1OC=CCCC2 N#CC12C=COC(N)=C1C(=N)NO2 CC12CN3CC(=NN=C1C=O)C2C3 NC1=NNC2CC3NC(=O)C(O)C123 NN=C1OC2=C3CC4C1C2N4C3 C1=NOCC2CCC3C(=C1)CC=C23 CC1=CC2C3ON4C(=O)CC4C23O1 CC1=C2OC3C4CC4C4C2N4C3C1 COC12C(CN)C3C=C4CN3C1C42 C=C(C)Nc1nn2cccc2n1N OC1C23C=CC4(O)C2CCC14CO3 O=C1C2=NOC3CC(C3)CN1CC2 CC12C3NC(=N)N1C(C=O)C(O)C32 Nc1[nH]cc2c1N=C(CO)OC=N2 NC1=CC(C2CC=CC2)=NOC=N1 N=C1c2nc(cs2)C#CCCN1N C1=CC2CC2OC2C3CC(=N1)NC32 CC12CC(O)C(=O)C3=CC(C=C31)N2 O=c1c(CN2CC2)cn2sncn12 CC1OCC2CC3C(=NCC13)NN2 CCN=CNNC=C1CCCN=N1 O=C1C=C2C3(COS2(=O)=O)CN3C1 CC1CC2(O)CN=CC3=CNOC312 CC1N2NS(=O)(=O)C3=CNN=CC312 C=C(O)c1occ2c1NN(C=N)C2 CN=C1OC=C(CC2CC2)C1=CO O=S1(=O)COC2C3C4CC3OC21O4 CC1=CC=NC2C(N)C2N(C=O)N1 OC1c2nc(co2)C#CC2CC1O2 C=C1C#CC2=NC(=NC(=N)C1)NO2 C1=C2COC3(CC1C1CNCC13)O2 NC12C3OC4(CCNC41CO)OC32 CN=C1C=NC(NCC2CN2C)=N1 NC12CC=CC3C=CC(=C31)OC2=O N=C1C=CN=C1NN1CCC(=O)C1 N#Cc1c[nH]c2c1CC1=C2CNN1 C=C1C2C3C4=CC=CC14C(=NO)C23 N#CC1=NC2=CC(CC2)NNC=N1 CC12CCCC13OC=C1CN2CC13 C=C1OC=CC(C=NC)=C1NNC CC1C2C3CC34C(=NN)N=CN4N12 C#CC1N2N=CN=C3NC(=N)CC312 CCON1CC2(C=CC(N)=N2)C1=O CC12CC3(C(=N)NC=C3O1)C1CC12 ONC1=Cc2csnc2C=CNC1 CC1CC2C3(CCNC23C2CO2)N1 C=C1C2(C)C3CC4C2CCC14C3C C=C1OCC=CCC2NC1=NC2C C=C1CC2C3C4=COCC(C23)C14N CC1C=C2CC3NC2C2N1CC32N CC1NC2C3C4C5CC(O)C1(C52)C43 COCC12N=C3NC1C1OC=C3C12 NC12C3COC14C=CC(=COC32)C4 CC1C2C3CC4C1C1C2N3CCN41 NN=CC1=CCOC=C1C(=O)NN O=C1Cc2csc3c2C(=COC3)O1 NCCC1C=NN=C2C=NC(N)=C21 NC12CON3C=NN4CC4C31C2O NC1C23C=CCC12C1=CCN=C1N3 CNc1c(N)n[nH]c1C=C(O)CO C1#CCC2CC=C3C(=CC1)COC32 C=C1C2=C3CN(C)C4C3C1C4C2O NC12CC3=COC4C(C=C3C1)NC42 NC1CC23CC14OC=C2C4N=CN3 C1=C2OCC3CCCN4C1C4C2C3 Cn1cc2nc1C1CC(CC=C2)N1 N=CC=C(C=CC=O)NOC(N)=O NC1C=C2OC13C1CC2C3C=NO1 C=C(C)C1C2OC3=CC2N2C3C12C N=c1[nH][nH]c2c3c(c(N)n12)C=CC3 COC1=CC2=CNNCC2=CC1=O CC12CNc3c[nH]nc3C1=CNN2 CC1OC2C3(C)OCC14C=COC243 NC1C2CC3CCC4=CC1C3(C2)O4 OC1C=CC2CC3=NOCC34OC124 CC1C=C2CC3C(O)C4C3C2CN14 CC(=NC1C2OCCC(N)C12)NO C=NN1C2(CC2)C(=C)N(N)S1(=O)=O C=C1CCN=C2C(Cl)=C(N)NN2O1 O=C1CC2(CN3CCC4C3C42O)O1 O=CN1N=C2CCN3C4CC4C1C23 OC1C2=CC3C1CC=CCC1C2N31 CC1=NOCCCC2(C#C1)CCC2 CN1CCC#CCn2[nH]c1cc2=O Clc1cc2cncc3n2c1CCO3 O=c1sn2cc1N1CC1CCN=C2 O=C1NCC2N=CN3OC=NC3=C12 CC12NC3CCC4=CC1C=C4C32 CC(=N)C(C)=C1NC(=S)N(O)C1=O NC1COCC2=C1ON1CCN=C21 CC1=C2CC3(CN=CN2)CC1CO3 CC1=NCC2=C(C)CCC(NO)=C12 NC12CC3=C4CC(C1O3)C2C4CO CC1OCC2C3C1=CC1C3C1N2C C=CNc1cc(Cl)c2onnc2n1 CC1ON=CC2=C1NOCCN=C2 CC(C)N1c2ocnc2ON1C=N CC12N=C3C=CC(N)=CN3C1C2O C1=NNCC2(C3CCNC=N3)CN12 C=NNC=CC1=NC(C)(C=O)CC1 N#CC(O)=C1N=CC(C(=O)O)=C1N C=C(C)N1CC=C2C(NN)=NN=C21 C=C(C1N=CC=C1NN)C(C)(C)C C1CC23Cc4nonc4CC2(C1)C3 N=c1c2c(n3sncn13)C(O)CC2 CC12C3=NOC4C(NC41)C3C1NC12 NC1C=C2N(C=NC23CNC3=O)C1 CC12C=C3CC(CO1)(C(=N)N3)C2N CC(=O)C12C3=CC4(CN1CC42)NC3 C=C(C)OC1C2(C=CS1(=O)=O)CC2 C=C1C2(C)OC3CC4NC13C(N)C42 NC1C2C3=CC4(CO3)COC(O4)C12 N=C1C=NC(Cc2nocc2Cl)=N1 CC1=NC2=NCCNN2C(O)=C1C CC(N)=NN(C)S(=O)(=O)C#N N=C1C2C3C(O)C4CN4C23CN1N Cc1cc(CO)sc1C=C(O)CO O=c1cc(NC=NO)c2c([nH]1)OC2 NCC1OC2C3C=C1C1=COC2C13 Cc1cc(=N)c(O)c(Cl)c(NN)n1 CC12C3=CC=COC=CC1C2OC3 O=C1C=CC2N=CC(=CNN1)C2O C=CC12OCC34NC(=NC31)C2C4O CC1=C2CC(O)C(=N2)NCCC#C1 CC1=CC(=N)C(NC(=O)C2CC2)=N1 CC12C3CCCC4OC(=CC41)C2C3 C=CC12CC34CC1CC3C(=NN4)O2 CC12C=CC(=NO1)CCCCOC2 N=c1[nH]c(O)c2c(Cl)c3n(n12)CC3 COC1=NN=CC2=NC(C#C1)CN2 CC1=C2CON=C2N2OC(C)CN12 O=C1C2CCC34C(=NOC23)CNC14 CC1=C(O)N(O)C(=N)C2=NCCN21 CCC12CC3=CC14CCC2C(O3)O4 CNC=C1NC(N)=C(CC#N)C1=O COC1C(O)=Cc2c1ccnc2O NN1CC2CCC=C3CN=C1C3N2 CC1=CCN(N)C2=NCC(=C2)C#C1 CC1CN=C2NCC3CCNC1=C23 O=C1C2=C(NNC=N2)C2OCC1O2 CC12OC3(C)C(C)(O1)C3(CO)C2N OC12C3CN4C3C3CC41CN1C3C12 NC1CCCC2C3C4=CC(C1O4)C23 NN=CC12CN(C1)c1ccn(N)c12 CC1C2CC3CNCC4CC2NC431 CNCC1=CC(=CO)S(=O)(=O)N=C1 C1=C2CCN3C4CCC1NC2C3C4 CC12CCCC=NOC(=N1)NNC2 CC12CCN=C3N=CC(N)=C3C1O2 C#CC(O)=C1CCNc2n[nH]cc21 C#CC(O)C#CC(=CC=NC)NN CCN1CC2CC3C(=NN)C=C1N23 C=CC(NO)=C(C)C=NC C#CC12C3=CCC4(O3)C(C)CN1C42 C=C1CC2C3CC1C1=NC2C3N1N CC#Cc1[nH]c2oncc2c1C=N CCC(C)(OC)C1=CNN=CN=N1 NC1C23C=C4OCC1(CCN2)C4C3 C=C1C2C3=CCC24CC3C1(O)C4=O Clc1cc2n(c1)C1=NCCON1S2 O=S1(=O)N=CC(OCOC2CC2)=N1 CC1CN2C=C(CCCN1)CC2=N C1=C2CCOc3ncc(s3)C(C2)O1 Cc1[nH]c(=O)c(=N)n2c1C=C(N)C2 NC(=O)N=C1NC23C=COC2(C3)O1 C=CC1C(O)=C(CO)c2occc21 C1=NC=NCC2=COCC=C(N1)O2 NC12C=CC34N=C(CC3C1)NNC24 C=C1NC=CC2=NOC(=O)N=CN12 OC1=Cc2cn[nH]c2C(N2CC2)C1 C=C1C2=C3OC4C1CC4C3(C)NC2 CC12C=C3C4OCC5C4N5C3C1N2 CC12C=C(CC1=O)OCCNCC2 C=C1C(=NCCC)C=C(NO)C1N O=C1N=C2C(CO1)OC1=CCCN12 CC1(C)NC1c1[nH]cc2c1CN=N2 C=C1C2=CC3COC4(C2)C1OCC34 OC1C2CC34NN=C5CC(C2C53)C14 OCC1=CC2C3N2C2C4COC13C42 CC=CN(C)c1nscc1C=CO CC=CC12CC(=N)C=C1NOC2=O C1=CC2NC2CN=C2SC=CN2O1 NC1CC2C3C4CCC35CC4N2C15 CC1NC2C3CC4(CC1=NN4)C2O3 CC=C1C=CC=NC2=NCC(C)=C12 CC1=NC2CC(=CC2=O)NC=CN1 N=C(N=C1C(N)CC2CN12)C1CC1 CC1C2NC34CCNC2(CN1C3)C4 C=CC1(C2=NC(=O)C(CN)=N2)CC1 CC1C2CN3CCC(=O)N3C(=S)N12 C#CC1=CC(O)=Cc2cscc2O1 NC1C2=C3OCC4C3C1C4(N)C2O CC12C=C(CC1)C(O)CN=CNC2 N#CC12NCC3C4=NC1C(N4)C32O ONc1cc(OC2=CCC=C2)sn1 C1ONc2nn3c(c21)C1COC1C3 C1=NN=C2CC13CC1(CC1)C(O2)O3 CC1N2CC3=C(C2)C1(C)NC(=O)N3 C#CC(=Cc1oc(C)cc1Cl)NO C1#CC2=NN=CNN(CCC=C1)C2 O=C1N=CC2=C3CCCOC3C=C12 C1=NN=C(N2NCc3cc[nH]c32)C1 C=C1C2=C3CC1C1OC(CO2)C31 CC(CN)NC(=N)C1=CNNC1C C=CC1(N)C2C3C4NC5C3C1C5C42 C=C1N=C2C=NN=CCC(O)C1N2 C#CC12C3CCC4(O3)OC1(C)CC42 NC1CNC2=NC1C=CCC=CN2 CN=c1c2c([nH][nH]c1=O)CO2 CC1C2C3NC4C5OCC4(C3O5)N12 NC1=NNC23CCS(=O)(=O)C12C3O CC1(O)C2(N)CC3C2C2=CC31CO2 CCN1CCC#CC2COC(=N1)C2 CC1=CN=NC(C#N)C(O)C=NN1 C=C(C1=CC=NC=NN1)C(N)CN OCc1[nH]nc2c1C=C1COC2C1 CC1=C2C(=CN)OCON=C2ON1 C=NNC(=CC=N)C1OCC1C=O N=C1C2CC3(CC=CN13)C1(N)CC21 N=C1CN2CCC3(CO)C(NN1)C23 Clc1ccn2c1C1(C2)OC=CO1 C=C1CN=C2C(=O)C3(C=NN12)CN3 N=c1ccc2c([nH]c1=O)CO2 NCC1=C(N)N=CC=C2CON=C21 CC12OC(CCC3(CC3)O1)CC2=O CC1COC2=C3C4CN(C4)C3C=C21 C1=C2CN3C4CCC15OCC2C5C43 CC12N=CNC3=C1OC(O3)C1OC12 C#CC1=NN2C(=NC3(CO)CC23)S1 CC12C=CC3(C=C(NC3=N)C1N)O2 CC12C3C4CC4C14CC4C1CN1C32 CC1=NC(N)=C(C(C)N)C(C)=NO1 CC(C)C1C2CC3NC4C1C=C2C34 CC1=NOC23C(=O)C(N)=NC2(C)C13 CN1C2CNC3=NC4(C)CC1C4C32 CN1C2C3C4C3(N)C1C2(N)C41CN1 C1=CC23CC(=C1)C(N2)C1=C3OCC1 CC1NC23CN=CC=C2NNC13C O=C1CN=CC2=C(NOC2)C2OC12 C=CC=CN(C)C(C=C(N)N)=NN CCC1C=C(N)c2c1[nH]c(=N)n2O C1=C2CC3CCNCC1CC2CN3 O=C1CCC23OC2C2=C(OCC2)C13 C=C1C23CC=C(O2)C12C=CCC2O3 C#CC(C)C(=CC(C)=NC)NO O=S1(=O)NCC2=NC(=CCO1)CN2 CC=CC1=C(NO)C2(N)CC2N=C1 Cc1csc2c(O)n3c(c12)C(C)C3 C=C1C(=C)C2CC(O)C3=NCC1N32 C=C1C2N3C4C=NNC1(C4)CC23C CC1(C)C(O)C23CC(=NO2)CN1C3 CC12C3=CN=CC3=NN1C2C=NO CC1=CC23CCC4NC(C=C42)C3O1 C#CC1=NC(=NO)N=C(C=C)NO1 C#Cc1nn2c(c1CO)ON=CN2 CC1=C2NC3CC3CN=C2C=NN1 CC1C2C3=CC14NC2(C)CC4C3N NC1=NNC23CCC(O)C2(C3)C1=O C1=C(N=C2NOCC3CC23)CCO1 CCC(C#CC=CN=C(C)N)C=O C#CC1=CNNCC1=NC=NO CC1OCC2C3(O)C4NC12C(O)C43 NN=C1CC2C3=CC4C5C3C5N2C14 Cc1coc2c1OCC1=C2CON1 Nc1c2nnn1NC1CC1CC#C2 Cn1[nH]c2c(c1=O)C=CCC2=CN CNN=CN1SC=C2C(=O)CN=C21 CC1=NOC(=O)C(=N)C1=C(C)NN CC12C3C=C4C(O)C5OC(C5C31)C42 N=C1NC2C3=CC4(CO3)OC2OC14 C=CC1=NC=NN=C2CCN(C2)N1 C1=CC2=NCCC23NC=NC3=NN1 CC1=CC23CNC4C2=NOC14C3N CC1(C2CN3NCCN=C3N2)CN1 O=CC12CC3C4CC1=CC1C(C43)N12 N=C1C2=C3N=CC=C3N=C2C2CN12 CC1=CN2C=CC(=NOCC=C1)S2 C1C2=NNC13C1NC4C1OC2C43 C1=CNC2CC3NC2C3CNN=C1 Cc1cn2c(=NN)sn(O)c2c1C O=CC1(O)C2=NCC3(C=CC1C3)N2 CCC1=C2NNC=C2CC1=O NC1=NCCNC(NCC(=O)O)=C1 CC1=CC(O)=C2C(=O)C=NN2CC1 NC1=NC=CC23C1OC(=O)C2C3O CC12CC3C4C(=C1CN)C=CC2N34 N#CC1CC(O)=Cc2c(Cl)csc21 C=NN=C1C=C2NNC3CC1C23N OC12C3=NOC4(C=NO3)CC1CC42 CCC12OC1(C(=O)NC)CN=C2N O=C1C2OC3=C4CCC1(O4)C1C3C21 C=C1CC2CC34CC2OC3ON=C14 C1=C2CC3OCC(CO1)(O3)C21CC1 OCC12C=CC(=C1)CCCC=NO2 CC12OC1C#CC1CN(C1)CC2O NCC1CC=Cc2c[nH]cc2N=N1 CC12NC3C4C(C(N=CNO)C31)C42 c1[nH]cc2c1N=NCCC1CNC21 NC1=CC2=NC3(C1)CC(O)C(C3)N2 NC12C3OC4CC41OCC1CN1C32 C=CCc1c(=O)n(O)n2scnc12 CN=C1C=Nc2c(O)c[nH]c2C1=O O=S(=O)(NO)ONc1ccccc1 CC1C2NC(C(C)S1(=O)=O)S2(=O)=O O=C1CC23C(=O)NNC=C2C=NC13 C=C1CN=C2Sc3sccc3N2C1 NN1CCCN(C=CNC=O)C1=S C=C1C#CC2CC(CN3CC13C)N2 C1CC2CCC1=NNCC1CN1C2 CC1=CC2OC3=NC1(C=CN3)C2C N=C1CC2CON=C3OC=C(N1)C32 CC1=C(CO)CC2=C1NC(=O)C2=N NC12CC34COC5C=C(O3)C1C2C54 CC(N)C12C=CC3C1=CC1C3NC12 CC12CC13COC1C(CN)C13CN2 CC1=CC2CC13N=C(OC3=O)N2N CC1=CC(=N)C=CN(C(=N)C=O)N1 c1cn2c3c(nc2nn1)C1CC3C1 C#CC(=C(N)NN=C)S(=O)(=O)O CN1CCNC(=N)C=C2CNC1=N2 CC1(Cc2c[nH]cc(O)c2=O)CN1 CC1(C23NNC=NC2CC3N)CC1 N=C(N)C=C(NOCC=O)C1CN1 C1#CCC2(CC2)N=CC=CNN=C1 C=C1C=CC2=NC(=O)NC2=C(N)O1 CC1=C2CN3CC2C3COCCO1 Cc1[nH]ncc1C1=CC(N)CCN1 CC1C2NN=C3N(C)C(=N)C1C32O NC12C=C3NC(=S)NC(=S)N3C1C2 CC=CCN=CC(C)=C1CCNN1 CN1C2CC3=C4CN(C3)CC4(C)C21 CC1(C=O)CC1(C)NC1=NC=CC1 C=C1CC23CCC(N=C1N2)C31CN1 CCC=CC=Cc1[nH]ncc1C=N CN=C1OC=NNC2=C1C(C)OC2 CCC1=NC2=NCC=CN2N=C1N CC1C2=CC3CC2C2(O)C3N(C)C12 C=C1CC23OC4C(C5NC52)C3C14N O=CC12C3COC1C1CN=C(N3)C12 CC(O)C12C3=CCC1C1NC3=NC12 CN1C2C=C3CC4C=C3C(N)(C4)C21 S=C1NC=CC2=C3C=COC3ON12 C=COC(C=NC)=C(CC)NOC CC1C2NC3C4C5=CCC3(C5)C2C14 N#CC12NC1C(N)=C(NC=O)C2=O C1=NCC2OC2C1=C1CC2CN2N1 CC12CC(CC=NN3CCN=C31)O2 CC1(C2=NC(C(N)=O)CON2)CN1 O=C1CC2C=C1C(=O)NNC=NN2 CC(=O)C12ONC3=NOC(C1C)C32 CCC12CC3=C4C=CC(C1O3)C42N NCC1=NN2C(=CC=N1)C1CC2C1 CC1=C2NOCC3COC3C2N=N1 CC1C=NNCC(=CNN)C=NC1 CC1=CC2C3=C1CCC3N=CN2O C#CCNC1=NC=C(C#N)NC=C1 NC12CC3OC4=C1CNC1C4C3C12 C=C1C23CC(C=NO2)N(C3)C12CC2 CC(C=O)=C1COC(=N)NC(N)=N1 CCN1ON=C2CC(=CC#N)N=C21 C=CC1C2=CC3NC1C1C2C31CC Nc1cc2cc3n(n2c1N)N=CC3 C=CC1=NC=NN2CC(C)NC2=C1 C=C1CC2=CCN1C=NN=CCC2 CC1CC(CN)C(C2=CNOC2)=N1 C=C1C(=C)C2C3C=C4CN3C2C1O4 CC12CCC1C1=C(CNCC1=O)N2 C=C1CC2=C3CC4(N)C(O3)C2C14O C=CC1C2C3C(N)C34CON=C4N12 CC12CC34CNC5C(C3)C1C2C54N ONc1cc2cc3c(nn2n1)CO3 CC12C=C3N=CNC34C(C1)OCC24 C=C1C2C3=CCC14NC2C(=O)C34 OC12CCC=CCC3(C1)OC=C2O3 C=CC1=CC2C3CC4=C1C2(O)C3O4 O=C(NO)N1C2C3CN4CC3C1C24 C=CC1=C2OC3C1C1(O)CCC2C31 CN1CC2CC13C1C=CC3(O)CC21 OC12CC1C1CC3=CCC2(CO3)O1 N=CC1=CNC(=C(C=O)C2CN2)N1 CC1CC2C(=NNc3[nH]ncc32)N1 C=C1C2C3=CC14OC2CC4(CN)O3 CC12ON=C3NC4C(C5CN5C41)C32 C1=CCC23C(=C1)CC1C(C4CC42)N13 C1=C2CCCC2=C2C3C4CC12NC43 CC12OC3C4=C(CC31)OCCC42O C=C1C23C=CC(=C2)OC1(C)ON=C3 CC1C#CC2C(C(=O)COC1)N2C C#CCN1OCC(C(N)=NN)C1=O C#CC(O)=C(O)c1c[nH]c(CO)c1 O=C1C2C3=CCCC1(CC1NC12)O3 C1=NC2C3COC2OC2C(C3)C2N1 NC1COCCCN2C=C1CC2=O C1=C2CNC34CN5CC3C5C1CC24 CC(N)C1=NC=C2C=NC(=N)N=C21 O=C1C=CNC=C2CN=C(N1)N2O C1=C2C3CC4OCC2C4(CCC1)O3 CC=C1C2=C3OC4C(O2)C1C4C3O O=C1CCC1C(O)=Cc1cnoc1 C1=CC23C=CC4(OC=C2C4O1)OC3 O=C(O)C#CC(O)=Cc1ccoc1 CN1C2=NN=CN1CCCCCN2 CC12C3CC(C1(C=O)CO3)S2(=O)=O O=C1C=C2NCCC=NN2C1=CO C1=C2c3nc[nH]c3C3C1CN1C2C31 CC12C=C3C4=C(C=CC4)CC3N1C2 C1#CC2CC3=NOC(C=C1)C=C3O2 N=C1C=CNNC=NCCC1CN NC=C1N=C(CCO)N=C(N)C1=O OC1CCC2C3C=C1C1C(CC3)C21 C=CCC1=C(O)C2=NNCC2=CO1 CC1(C2C3C(=NN)NC(=O)N32)CC1 NN=C1N(N)CC2=CCCCCN21 N=C1CCC2C1=CNN=C2C=O O=Nc1[nH]cc2c1nc1n2CC1=O C1N=C2NOCC34CC(OC13)C2O4 C1CC2C(O1)C1CC23CC1=NO3 CC1CC2OC13CC21CCC=C1O3 NC1CCCOC2=NCC=C(C1)N2 CC1CC2=NC(=N)C(=C2)C=CCN1 CN1CC2COC3(CNN=C3N1)O2 CC1C(=N)NN2C13CC1C(C3)C12C COn1[nH]n2cc(C)c(Cl)c2c1=N N#CCC12CC34C=C(OC3O1)C2C4 N=C1NOCCC2C=C(N1)OC2=O C1=COC(C2=C3CNN=C3OC2)O1 CCC1=C(C)C(C)=C(C=O)C=NN1 CC(C)C1C2OC3=NNC2C2C3C12 OC12CNN=C3CN4CC31CCC42 ON=C1NCC2C3C4C1C1C2N1C34 NC1C2C=C3C1C(=O)OCC3(O)C2 CCC12NC3(C)C=C1C1OC2C13C C=C1C2=CC#CC#CCN1C(=N)C2 CNC12C3(N)CC4C3CC1(O)C42O CC12NN=CC13C1=NOCC1OC23 CC1=CC=NN2C(N)=CN(C)C2=N1 O=CC1C#CC2=CCC(=NC=N1)N2 CC(C)CN=Nc1cnc(=N)[nH]c1 CC1C2=CC3CC2C2(CCC1C2)C3 C=C1CCC2=C(C1)C(=N)C(=N)N2 NN=CCC1NC2C(=NN)CCC12 C1C2NC3C4C5C2C5C2C1N2C34 C#CCN1NC(C)=C2C=NC(C)C21 N=C1NCC23OC=C(CC4C1C42)O3 C=C1CCC(=N)C1=CNNCC=O C=C1C2=C3OC1OC3(C)CNC2C CN1C=C(c2cn[nH]c2)NCC=N1 C1CC2=C3CON=C3CCNC2=N1 C=C1CC2=C3C1CC1NC(C2)C31N CC(C=O)=C(CO)NC=CN=CN CC1=CC2C3CC#CC=COC2C13 CC12N=C(NN)C=C3C4C(OC31)C42 NC1C2C3C4OC=NNC14CC23N CC1=C(O)COCc2[nH]cc(Cl)c21 OC1=C(Cl)C2=NC3CCC3CN2O1 O=C1CC2N1C1=CCNC1C21CC1 C=Cc1[nH]oc2c(O)c(=O)[nH]c1-2 O=CC1C2C3=CC4NC2CC41OC3 CNCC=C(N)c1cnc(=O)[nH]c1 C1=CC23CC4C=CC(C4)(O2)C(=C1)O3 Nn1[nH]c(=O)c2c(C3CO3)ccn21 CC12C3=CC4NC(CC1CNC3)C42 O=CC(=C1C=CNOC1=O)C1CO1 CC1=CC2C(=CC3=C2C(=O)N=C3)C1 NC1C2CC=C3CC4OCC=C4C312 CNC1=CC=C2CCN=C2N1N Cc1n[nH]c2c1C1C(=N)NN(C)C21 C=C(C=C1CC(C)C(N)=N1)C(=O)O ON1C=NC2CC34CNCC3(N4)C21 NC(CCOC=CCO)=NCC=O Nc1noc2c1C(=CO)C(CO)=N2 C=C1C2=CC3C(=O)C1N1C2C31C#N CC12COCC1(C)C(=N)NC(N)=N2 CC1=CN2C(=NC(C)C3(C)CN23)N1 CC1=Cc2[nH]c(C)cc2C=NN1 NN1C=NC=NC2C3C=C(C1)C2O3 CC12C3CCNC14CCC4N=CN32 C=CN1C(O)=CC2=NOCCN21 CC1=C2NC=CN2C=NN=CC1=O C1=C2CN3C4COCC3(CO2)C1C4 NC(C=CC=O)=Cc1nocc1Cl NC1CC23OCC4C=C2C2C1N2C43 C=C1C2=NCC3NC3CCC1ON2 C#CC12CC3C4=CC1C2C3(C)CC4 NC(N=CN1CC1)=C1CONC1=O C=C1C2N=C(N)C3(O)C(=O)C2NC13 N#CCC1=C2NOCCC2N=C1 CC1C2C3=CC4C2CCC14C=C3 NC1(CO)C=CCN=NC1=CNO CC1CN=C2C=COCOC=C1N2 C=C(NC=O)NC=CC(CC)=NO CC1ONC(C=O)=C1c1ccco1 CC1(C)OCOC(N=CN)=NC1=O CCCN=CC=C1CN(O)C=NN1 CC1C2NN=C3N(C)C(C)C1C32N CC12CC3NC4C(=NOC1(C)C34)N2 C=C1Cc2cc(N=O)c(N)nc2C1 C=NN1C2C3C(=C(C)C)C4C2C4C31 C=C1C2OC3C4=C(C)C(C)C13OC42 CC(=O)C1N=C2C=C(N)C3CC1N23 NN=C1C2CC3=CC2C2OC3CC12 CC1=C2CC(=CCCNC1=N)CN2 CC1C2C3=NOC4CNC34C1N2C NN=C1C2(O)C(O)C3C(C2O)C13O COC1C2C3=NOCCC3=C(N)C12 O=C1CCCC23OCC1(CO2)C3=O C1=CC2C3=CC4C(C1)N4C2C1OC31 CNC1=NC2=CC(NC)CC23CC13 N=C(N)C(O)=Cc1cnncc1Cl CC1=NCC2(C)OC2C=NNC=C1 NC1C2C3NC34C3OC3CC4C12N CC1NC2CCC=C3CNC4C1C324 CN1Cc2cn3cc(Cl)cnc3c21 N=CN=Nc1cc2c[nH]cc2cn1 C=C1C(=N)C=C(C#N)NNCC1=O C#CCc1ncc2[nH]cc(N=N)n12 NCC12CC1C1C3=CC4C(C3)N1C42 C=C(C)CNC1=COC(=CO)C1=O C=CC1=C2C3=CC4C(C1)C2C4(N)C3 C=CC12OC34OC1C2C3CCC4=C C=C1N=CC(C)=C(CC)NN1C=N CC1=C2C3CC4(CC3CC24O)C1C C1=C2C3OC4(CC3OC24)C1C1CN1 N=C1OCC=C2C3CC(CON12)N3 N#CC1=CC23CNC4C(C(=C1)O2)C43 C=C1C=CN2C=CC(=NOCO1)S2 N#CCC(=O)OC1=CNC(=O)C1=N OC12C=CCC3=C1C(C=C3)OC=C2 OC1C=C2C3C4CC3OC2(C1)O4 C#CC12OC3OC14CC=C2C3(C)C4 C1=CC2=NCC(c3ccsn3)N2O1 NC12CC3OC(=O)C14CN(CC34)C2 CN1CC2C(N)=NC3C2C3C1C=O C1OCC1NC1=NOC2(CNC2)O1 C=C1OC2CC1=NN=COC1CC12 NN=C1CC2(CC2)OCOC1=NN CC12CC1CC1NN=C3CCN2C31 C=CNC(CC1=CCC2OC12)=NO C=CC12CC3=CC1C(O)C1(C)C3N21 CC1N2C(=O)C(N)=NC2=CC1(C)C NC1C2C3N4CC(C4)C34NC4C12N O=CCC1C2CC3OC4=CC31NC42 CC1=CC2C3N2C2C4NC2C13C4N NCC1C2N1CC1=NN=CN3CC123 CC12OCC1C1CC23C=CC(=C3)O1 CC1(C)CNC(NC=CNC=N)=N1 C1=NC=NN2CC2C2CC=C(N1)O2 C=C1CC2=C(N=C(NC)C3CC23)O1 Cc1[nH]c(N=N)c2oc(=O)sc12 CN1C(=CO)C(=O)C(=O)N1CC=O C#CC(C=NCCCCO)=CNO CC1C2=NN3CC(=O)N=C3N2C1C NN1C(=O)CCc2[nH]c(N=O)cc21 CC12CC(NN)=NC3=CC(CC31)O2 C1=NC=C2CCN=C3NCC(=C23)N1 OC12C=CC3OC14OCC3C4OC2 C=C(C)C(=C)C1=C(N)C(=N)C(=O)N1 C=C1OC2CC3OC4=CCC13C42N NN1C2C3(O)CCOC23CS1(=O)=O C=C1NC(N)=C2CON=C2N1OC CC1=NC2(CC2)C2C1=CNN2C=N N#CC1=NC(=O)N2NCC=C2C=N1 C1=CC23C=C1C1C4OCC1(C2)NC43 Cc1cc(NNC2CC(=O)C2)n[nH]1 C=CC1(C23CCN4C(CO2)C43)CO1 CCCC(=NC)C(=CNOC)CN CN=CC(OC)=C1NNC2C(C)C12 C=COC=C1C(=N)NC=C1N=O N=C1CONC2=C1C1NC1S2(=O)=O COC=CCOc1nc(N=N)c[nH]1 N=C1CN2NC3CC(=O)OC3C2=N1 N=C1CC(O)=C(c2cccs2)CN1 OC1C23CN=C(N2)C12C=CCN2C3 NNc1cccc(N)c1S(N)(=O)=O N=CC=C1CC(C=CC=O)CON1 CC1=NNC(=N)NC2=NC=C(C1)C2 CC1CN2C3C2C12NC1CC2C13N CC12C(C=O)COC13CC1C2N1C3 CC1COCC2=CC(=NN1)SN2N N#CC1(O)CC2=CNNC2=C1C=O C1=CC23C=CC1C2(C1CC1)NN=C3 C#CC1COC2=C1C(=O)NC=CN2 CN1C=NOC23CC(=NO2)C1(C)C3 CC12C=COC3=CCOC(=NC1)N32 C=C1C=CC(O)=C1c1coc(=O)o1 N#CC12CC3N4C(C41)C(C=O)C32O CNC12C(=O)C(C)(OC1OC)C2O NC1C2C=NOC3C4(O)CN(C4)C123 c1c2noc1CN1CC1C1CN2C1 C=C1OC(=NC)C=C1NOC(N)=O C1#CCC2(CN2)c2ncc(s2)C=C1 OC12C=CC3OC14CC3C1C2N1C4 CC12N=C3NOC=NC=C3C1C2N CN1CC23NC4CC2N=C1C4C3O C(=NNC1=NC=NOCO1)C1CC1 NCC1(O)C2C3C4N3C1C2C41CN1 CC1=C2C(=CC3CN23)C=NC1=NN CC12C3=NN=CC4(CC(N)C1C42)O3 N#CC1CC2C3CC(C24CO4)C13O C=CC1N=C2N=NNC=C2C=C1C C=C1OC(C2(C)CO2)=CC=NC1=O C1=C2CCC3OCCC(=C23)CC1 N=c1cc(-c2cc(O)cs2)onn1 CC1C2CCC3N1CC1OCOC123 C#CC=CC(C=N)=CNNC=N C=CCC12CC1C1OC(=C)N=C1N2 C1OC2OC1CC13OC1CON=C23 CN=C1OC(CNC)c2n[nH]cc21 C=C1CN=C2CNC(=N2)C=CC1C OC1=CC2=NN=CCC=CN1C=N2 C1=C2COC(O2)c2nc(c[nH]2)NC1 CC1COCC=Cn2scc1c2=O Cc1o[nH]c(=O)c1C1=C(O)CNC1 O=C1CN=CC2=C(NO1)C1NC1C2 C=C1OC2=C3C1CC(C)C3CC2 NCC12C3N=C4NC3C3CC4C1C32 C=C1C2=CNC=NNCC3C1NC23 Nc1[nH]c2cc1C1CC1C=CC#C2 C#CC12C=C3C(ONS3(=O)=O)C1O2 COc1c(C)sc2c1C(C)=CNO2 CC1N2CCC3=CC4NC3C2C41N Cc1nc(N=NCCC=O)c[nH]1 NC1C2C=C3COC(ON=CO2)C31 O=C1N=C2CCNC(=O)NCC2=N1 O=C1CCC2(CO)CC3C=C2C1N3 C1OC2=NOC13CC2C1(CN1)CO3 C1=C2CC3CC1(CC1NC21)C1NC31 C#CC=C1CC2C3OC4=CC3N2C14 OC12CNC34CN5CC3(CC5C14)C2 C=C1CCN=NC(C)=C(NN)C1C CC1C(CC23C=CC(CO2)O3)N1C CC(C)CC12CC1N1N=CSC1=N2 N=CC1=CNC2=NCCCN2C1=N C#CC(C=NC)=C(C)NOC(C)C CC1(C)C2(O)C3C4CN(CC43)C12C C=C1NC(=NO)C2=C(N1)C(O)CC2 CN=C(C=O)C(C)=C(CCO)NO O=CNNC1CN(N2CCC2=O)C1 OCC1C2=CC=CC3(CC1CO3)O2 N=C1CC2C(=N1)N(O)c1ncoc12 NC1C2NC23C2OC2CC32CC12N COn1[nH]c(=N)c2c(O)occ21 OCCOCC1=C2N=NCC2NN1 C=C1OC2C3=CC(C)C2C2C(O3)C12 NN=c1[nH]c2cc3c(cc2[nH]1)NC3 C=CC1=C2C(=O)NC=C2C(=N)C1=C CN=C1OC=NC1=C1N=CNC1=O NCc1ccc(C2=CNNCC2)s1 COC1C2C3CC14OCC2C4=NN3 CC12COC3CC1(C=CO3)N=CN2 CCCC1=CNC2=CCON2C1=O CCC1=CC=NC2C(C#N)C2NN1 CCC1C(=O)C2C3C4=CC1(C=C4)C23 C=C1CN=C(C)C(CC)=CNOC1 C=NN1OC=C2C1=NOCCC2O CC12CC3(O)CCC4C1OCC43N2 C1=CC2CC3C(=CO1)CCNC3=N2 CC1=CC(=N)NN2c3cn[nH]c3C12 OC1C=CCCC2=CC(=NC1)ON2 CC(C)=CC1=C2NOCCC2N=N1 C=COC12OC(NOC)=NC1C2O CCOC1=C(NNC)CCN=C1C O=Cn1c2sncc2c2ccnn21 O=C1CC2CC34CCC(CC3)C14O2 CN1N=CN=C(OC=O)C=C1CN Cc1[nH]c2c(c1N=N)C=COC2 CC1C2CC(O)C13C1OCC3C2O1 OC1C2C3=COC14CC2CCNC34 C=C1OC2C(C(C)=O)C3ON=C1C32 NC12C3CCN4CC41C1(CC1)NC32 C=CC1CN(C)N2SNC(=O)C2=N1 NN=C1OC2CC1C1OC1C2=NN CC12CC3(O)C4=NNC3C1C2CN4 N#CC1(O)CC(N)=NCC1C(N)=O NC1=NC23C(C=O)C2COC3C1O CC1COCC(C=NN)(C=NN)C1 C=CCc1n[nH]c2c(N=O)[nH]cc12 C=COc1[nH]cc2cncc-2c1O NC1CCCC2=NOC(=NC1)N=C2 C=C1CC23NC1C1=COC2CNC13 OC12CNCCC3C=C(C1)C(C2)N3 C#CCNNC=CC=NC=NC O=c1nnn(C2=NC3C=CC2C3)s1 CC1C2(O)C(=O)C1(O)c1[nH]ccc12 C=C1C(=C)C2(O)C3NC14C=C3OC42 C=C1C2=CCC=CCCC1=NC2=O C=C(C)C(=N)N1ON=C2CCN=C21 CC12CCC1C1C(=NC=CC1O)N2 CC12OCC3=C(C4CC3C1O4)C2O O=C1COC=C2COC3=CC1NC23 CS(=O)(=O)C1CC23CC(CN2)N1C3 OCCOC1ONc2ccccc21 COC(C)=CC1=C(N)C(=N)C(=O)N1 CC#CC1=C(C(C)=NC)OCON1 C=C1C2C3N2C2(C#N)CC3(C=O)C12 CC1=CC=C2C3(C)CC4C3NCC124 OC=C1N=NC2=C1COC=NNC2 COC1(C)CC2C(C2(C)O)C12CC2 C=CC1=CNc2oc(=O)[nH]c2N=C1 CC1=CN=C2C(=NNCC23CC3)O1 C1=C2CCC3(C2)OCC(=NNC1)O3 OCC1CNC=C2C=CN=C2N1 CC12CC=C(C1)OCCC1CC2N1 CC(OC12OC=CC1C2O)C(=N)N CNC(=C1OC=NC1=N)C(O)CN C#CCC(=CN)C(N)=NNC(C)=O C=C1C2C3CC14C=CNC(=N4)CN32 CC12CC3NC4C3C=C(OCO1)C42 COC1=CC=CNn2c1coc2=O CC12C=C3C4=CCC=C4C=C3C1C2 CC1CC23NCC1C21CC2C(O1)C23 C1=Cc2csc(c2)C=CNN=CC1 C1=CCC2C=NN=C3COC(=C1)N32 C=CC12CCC3(C1)NN=C2C3=C CC1=C2CC3CC(C1C=O)C1C2C31 C=C1C2CC34CN3C(=O)CC14CN2 C=CC12C(=O)C3N4CC(NC31C)C42 CC1C2C3COC24CN1C1C3C14C CC1=CC=NOC(N2CCCN2)=N1 NC(=NO)C1C2C(C=O)C1C1CC12 O=C1C=C2CC3C=C2C2C1CC32O N=CC1=C(C=O)NN(CC2CC2)C1 CCC1CN(N=C(OC)N(C)N)C1 C1=CC2N(CC1)N=C1NCC3NC132 O=C1N=C2C(=NC=CN2O)C12CO2 CC12CC3=C4COC(C41)C2C1CC31 CC1C23C=NNC2C(NC3)S1(=O)=O C1=C2CCC3(OCC4CC1C3C4)O2 NC1C2C3CC4=NNCC1(C3)CC42 C#CC1=C(O)N2OCC=NN=C2O1 N=C1C=CC2C=C3C(=CC4OC34)N12 ON1CCN=C1OC12CC1C=NO2 C#CC1C(=NO)N=CC(C)=C1NN C#CC1NC2(CN3CC2(N)C3)C1O NC(C#CCO)CN=NC=CNO C=C1Cc2nc3c(O)[nH]cc3n2O1 C#CC12CC3C4OCC1C(=CO2)C34 c1ccn(N2CCOCOCC2)c1 CN=C1COC2=C(CC3C2N3C)N1 CCC1=C(c2c[nH]cn2)CC=NN1 CN1C=C2C=CN(C=NCC1=O)C2 CC12CN3C1C1=CC3(C=CO1)C2=O C#CC1=C(O)Cc2scc(Cl)c21 CC1C=CC2N3C(=CC=O)NCC123 C=C1OCC2=C3C(CC=CC13)NC2 CC12CC(C1)C1=C(C=NC1=N)O2 C=C1C2CCC3N=C4NC1C(O4)C32 CC1(c2cnsc2)Oc2nn[nH]c21 NNC1=C2C(=O)N=CC=C2C(O)C1 C=C1C=CC=C2CNNC(=N2)CO1 O=C1CC2C3C=CC4=CCNC1C432 C#CC(=O)NOC=NNC=CC=N CC1=NCC(C(C)N)ONC=C1 C1=NCCC2(C34CCNC3C4)CN12 O=C1NC2=NC13C1NC2C3N2CC12 CC1=CNC(C#N)=C2N=CN=C2N1 CC1=NN2CC2C(=NO)OC(N)=C1 C1=COC(C23CCNC=NN2C3)O1 CC1C2=CC3(C)C=C2C2CC3(C)C12 N=C1C2CNC3C(O)C(C3C2)N1N CNC(C)=C1OC(=O)OC=NC1=O COC1=COC2OC(N(C)O)=NC12 O=C1CC2=CON=NC2=NC2CC12 C=C1OC2=C3C(CC2)C(O)CC13O CN1CC(OC2(C3(N)CC3)CC2)C1 C=C1c2[nH]c(N=N)cc2N2C(C)C12 N#CC12CC3CC14COC(=NC32)N4 CCC12C=CC3(C1)OC(=C2)C1NC13 Cc1[nH]nc(NC=O)c1C(=N)C=O CC#CC(NO)=C(O)c1cccs1 O=CC12C3C(O)C1C1C3C3CC1N32 OCC1CC2NN=C3N=CSN3C12 c1nn[nH]c1C1(C2OCCO2)CC1 Cc1[nH][nH]c2nc(OCC=O)cc1-2 C=C1OC2C3CC4=C1C2(N)CN3C4 N#CC1=CC2C3=C1CCC3C1CN21 CC12OC3=C4COC1C4(O)C2(C)C3 C#Cc1nc2[nH][nH]c(C)c-2c1O NC12C3=CC4CCNC(C1CC3)C42 C=C1C=NC(=N)N=C(C2CC2O)O1 CN1C2CC2C2=CCN(N)C(=O)N21 Cc1nnc2c(C3(N)CC3)csn12 CN1NC(=O)CC2=C1CON=C2N C=C1CC2C3(N)CC(CC2(N)C3)O1 CC1=NNC(=C(C=N)C=O)C(=O)O1 C=CC1=NN=C2C13CC1C(C3)C21C OC12C=C(C=CC1)CNCCCC2 CC1CC2OCCCC(=O)C#CC12 C=CC1=CC(=CO)C(C#N)=N1 CN(C=O)C1=CNS(=O)(=O)N=CO1 NCC1C=C2N(C=NC23COC3)O1 C=c1cnc(=CS(=O)(=O)O)c(N)n1 Cc1[nH]c2cn(N)nc2c(=N)c1C CC12CC3C4NCC35CC4C1(O)C52 CCON1OC=C2CCC(=O)N=C21 NC1=NN2C(C1)C2C(CC=O)=NO Nc1nc2oc1ON=CNC1CC21 C=C1C2C3C4C5CC4(C)C(N23)C15O O=CC1N=C2CC1OC=CC=NN2 NN1CC23CC2C2CN2N3C1=S C#Cc1cc2[nH]occ-2c(=O)c1C CNC12C3N=C(N)C1(C)C2CC3=O O=c1cc(Oc2cncnc2)[nH]o1 C1=NN2C3COCCON=C1C32 C=Cc1[nH][nH]c2c(OC=O)nnc1-2 NN=C1C2NC34C=CC2N(CC3)C14 NC1C(CO)C23C=CN=C2NOC13 OC1CCCC2=NC(=NCC1)C=C2 C1=NN2C(C3CO3)C2C2CNC=C12 CCNC1=NN2C(=NN1)C=CC2C NC12CC3C4CC5C(C=CC51C4)C32 C#CC1C2C(O)C3=COC4CC34N12 CC=C1CC2CC13C1CCN3CC21 CCC12C3C(CO)N4C1C4(C)CN32 O=CN1CC23COC(O2)C(=N1)C3 N#CC1N2C=C(C=O)C3ON=CC312 C1=C2CCCNC3C4OC3C2C4O1 C=C(N)c1c(O)cnoc1=NNC CC=CCC(O)=C(C)c1cnsc1 CN1C(=O)C2CC23C(N)=NC=CC13 CN1C=NC2=NC(=N)CCC2=C1O CC1COC(=C(C=NN)C=NN)C1 Cn1[nH]c(=O)c(Cl)c(C=CO)c1=O N=C1NOC2C3(C=O)C4CC(O4)C123 O=CC12CC3(OCCO3)C1C=CO2 CC1C2OC=C3C2N1C1CCC31C OCC(C=NO)=C1C=NC=NN=C1 OC12CC(Cc3ccco3)N(C1)C2 NC1=CC2=NOCC(=O)N2C=C1N C=C(C)c1cnc2cn(CC)[nH]c1-2 NN1C2CC3OC3C23NC3S1(=O)=O CC=CC1=C(CO)NN=CCN=N1 NC12CN=C3N=C4NCC=C4C31C2 CC1OC2CN3CCC(=N)N3C12C N=CC=C1NOC=NN2C(C=O)C12 CCC1N=CC(=C(C)NO)C1OC O=C1N=C2C=CN=NN2C=CC1O CN1N=C2CC3OC4CC1C(O2)C34 O=CON=C1CC2=C(N=CNC2)N1 CN1CC2=NC=COC(=NO)C2=N1 COC(C#N)=C1N=C(C)OC(=N)N1 O=C1CC2CC3(COC4CC43N2)O1 CC1CC1N(C)N=c1s[nH]c(=N)s1 N=C1NC(C=NN)=C2C=CC(N)=C12 CC12CC34COC1C3C1C(C4=O)N12 Cc1cc(NN)c2[nH][nH]c(=N)c2c1 CC1(C23NC2C2NC3C3OC23)CO1 C=C1C2C=C3C(C)=CC1C1(O)C3C21 CNNC=Cc1scc(NO)c1O O=c1[nH]sn2cc3c(c12)C(CO)O3 CNC(=C(O)C=O)c1cocc1O OC12CC13CNC1(CC1)C3C1OC12 Cn1cc2c3c1OCON3C=NC2 CC12CC3=CC1(C=O)N1CC3=CC12 CN1CCC(C)(C)N=C2NC=NN21 CN=C(C=C1C=NN=CON1)OC CC1C(C)C2C3C1C1=CC3C2(C)C1 CCC(=O)N1CC2=CC(=N)C=C2N1 Cc1c(C=C(O)CCO)cnn1C N=C1C=CCCc2ccc([nH]2)N=N1 CC1C=C2C3CC4=CCC2(O1)C4C3 N=C1CC=C2On3c(O)ccc3N12 CC12CC(O)C1(C)N=CC2=CNO NNC1=C2C=NC(CO)C=C2OC1 C1C2OC3OC4C5CC2C5NC4C13 C=C1C23C=CC4C2=NNCC14CO3 O=CC12CN=NC1=Cc1c[nH]nc12 C=C1C2OC3(C)CCC4C2NCC143 CC1=NC(c2ccc(C)[nH]2)=CNN1 NC1=NC(C(=O)C=NO)=COC1 O=C1NC2CC23C2C=CN=C2NN13 NN=C(N)C=CC1OC1CC(N)=O Clc1cc2oc1CC1CN1NC=N2 CC1CC2=C(N)OC(=O)C2=CNO1 NC(=O)C1=C2C(N)=NNC2CC1 O=C1OC2C3C4NC25CCNC15C43 N=C1N=CN(N)C23C(CN4CC42)C13 C#CC(=NC1CC(OC=C)C1)NN CCC12C3=CC4CCC3CC1CN42 C=NN1CC1Cc1c[nH]c(N=N)c1 O=C1CC2=CC3C4N3CC=CC14O2 OCCC12CC13NCC1NC13CN2 C1=CC23CNC(=N2)CCC2C3N2C1 O=NC=C1NOCCC12CC(=O)C2 CC1C2=CC(C)(C)C3OC(C1O)C23 O=CCC(O)=C1C=CC(=O)C(=O)N1 C=C1OC2ONC=C2C1=NC1CC1 CC1=NOCC=C2CC=C(O2)N1C CCC12C(N)=NOC13C(=O)NOC23 COC1CN2C(=N)C3CC(CC12)N3 O=CC(O)=C1COCc2cc[nH]c21 CC1=C2C3CC1C1C3C3CCC2N31 CC1=CC23C=CC(=CC1(C#N)O2)O3 Cc1oc(=N)c(NC=O)c(O)c1C CNC(C)c1cc[nH]c1C(O)=CO CC12OC3=CC(C1CO)C1(C)C3C21 C#CC1CNNC=C(C)C1=NC CC12CC3CC3C1C1=CNOC1=N2 CC1=C(O)C2OCC2c2nocc21 CC1OC2C3OC4=C1C2C3(C)C4=O O=C1C=CCN2CCOC(=N2)CN1 C1#CC2CNCC(C#C1)C1CC2N1 COc1c2scnc2c2cn[nH]n12 COC=C(C)C(O)=Cc1cnoc1 C#CC1=Cc2c(C=O)coc2ON1 NC1=C(C2=NC=CCN2)OC=CO1 C=C1CCc2c(nc3nn[nH]n23)C1 C=CC(CC)N1NN=C2CCN=C21 CC12OCCC3=C4CC1NC4C2C3 O=C1NC=C2CC1=NN=CC=CN2 O=C1COC23COCC4C2C1N4C3 C1NCC23OC4C(O2)C4C2(CC2)C13 CC1NCC(O)=C1c1ccc[nH]1 C=C1CN=C2C(N)=C(Cl)C(=O)ON12 C=C1C(N)C#CC=Cc2ccn1c2 S=C1NC2=NNC3CC(C3)ON1C2 CC1C2CC(C3=NN4CC4C3)OC12 CC1=Cc2cc[nH]c2N=NCCO1 CC1C=Cc2nnc3n2N1CCO3 CN=NC(C)=C(NN)C(C)(C)NC CC1=C2C3CC4NC2(CO1)CC43N N=c1o[nH]c2c1N=COC2=CCN CNC12CC1C(=N)C=CNNC2=O NC1CN2N=C3SNC=C3OCC12 O=S1(=O)NC2C3C=C4CNC2C41N3 C1=NCCCC2CC3(C=C2N1)CO3 CC1=CC=NC=NOC(=O)ON1 N=C1CS(=O)(=O)ONC=C1C1CC1 OC1C2=C3CCC4C3C1C1CC2N41 CC12COC3C1N1C2CC2(N)C3C12 C=C1OC2C3CNC14C1CC1OC324 OC12CNCCNN=C3CC1NC32 CCN1N=CN=CC=C1C=NO CC12C=CCNC34CC(=CC31)C2C4 NC12C=C3C=NC(=NO)N3C(C1)C2 CC1CN=C2ONC(C3CC3)=C2C1 C=C1CC2=CCC34CCC1(C=C23)O4 N#CC(N)=C1C=NC(=NO)C=CN1 C=CC1=C2N=CC=C2S(=O)(=O)N=C1 O=C1NC2=CN(CCCO1)C(=O)C2 CC1C2=C(C=O)C3C4CNC2C4C13 C#CC1(N=c2o[nH]cc2Cl)COC1 CC1=NC=C2CC3CC2(CN3)NN1 CCC(=N)C=CNOC(C#N)C=O CC12CN3C4C(=CCO1)CNC2C43 CC1=C2C3C=CC24NCCC4C1N3 CC(C)C12OC3OC4=COC3C1C42 C=C1C(=C(N)N)C(NN)=NC12CC2 C=C1OC2C3CC(CN1C=N)C2N3 C#CC(NO)=C1NN=C(C)S1(=O)=O CC1OC(N)=C2C(N)=NCC2C1=O CCC#CC=CC(=N)NN=C(N)N CCOC1CN=NC1=C(CC)NN C1C2OC1C13OC21C1CCN2C1C23 C#CC1C=NN=C2SC(C)=C(O)N21 O=C1CNC2=NC=NCC=CN1O2 Cn1cc(Cl)c2c1C(O)=CNN=C2 CCC12CC3C4=C(C)C(C)(CC41)N32 C=C(C)C1=NCC(CC)C(NO)=C1 CC1N=C2C=CC(N)=C(O)N2C1=N ON1C2=NOC3(C2)OC=CC2C1C23 C1=CC2C3CCC4=COCC(O1)C423 CN1C=CN2C1=CC=NNS2(=O)=O C=C1CC2C3C=CC4=C1C2C3C4=O CC1c2[nH]c(N=O)cc2C=NN1C COC1=C(O)Cc2nc(N)ccc21 CN1CC2(O)CC3(O)C(=O)N=C1C23 NN=C1NC2CC3C=C2C2C1OC32 CCCc1nnc2c(O)cnoc1-2 CC1N=CC2=C(CN)NNC23CC13 CC(C#N)N=c1c(=O)n(C)sn1C CN=CN1C2CC1C(=NC)N(N)C2 NC1C2OC=C3N(OC=O)C=NC312 C1=C2COC1CCc1nc(ns1)O2 C=C(C)CC(C)=NNC=CN=NC OC1C2N=CN(N=C3CCCC3)C12 CC1N2NC(=O)NN=CC#CC12C C#CC1=CC(O)c2[nH]c1c(O)c2O C=C1NC(N)=C2CCNN=C2N1C C=CC1N2CC3C(N3N=C)C12CO CC1=CCC23C(C(=N)N=CN2N)C13 CC1CCOC2=C3N=CN=C3NC21 CNC1=NC2=C(CCN2)C(C)=NO1 CC1NC=C2C1CNCS2(=O)=O C=C1CC(O)=Cc2[nH]c(=NO)oc21 C=CCc1nc2ns[nH]c-2nc1=O CNC1=c2ocnc2=NC2(C)CC12 Cc1[nH]cc(Cl)c1C=C(O)C(=O)O Cc1nc2c(s1)C1=NOC3CC2C13 CC12NC3C1C1OC34CC(N)C1C24 CC12CC3(C(N)=O)C1C(=O)C1C2N13 CC1=CC2(C3OC3C)OC3C(O2)C13 NC12C=CC3(C1)OC=C1C2OCC13 OC=CC1=CNN2CCCCN=C12 Cc1c2nnn1C1CC1ON=CO2 Nc1c[nH]nc1C1=CNOCC1O N#CC12C3OCC1(O)C1NC3=NC12 CC1OC(CO)c2[nH]c(N=N)cc21 OC12CC3CCC4(C1)C1CN(C12)C34 CC(N)C1=NN=CCN(C)C(N)=C1 COC1=CNNCCC#CCN=C1 O=C1C2CC3CCCN4CC2CC134 C=C1C=C(C(C)C#N)OC=NC1=N O=CC(O)=C1CC(=O)c2cocc21 CC1CC2C3(CC4CC(N4)C23O)O1 C=CC1=CN2C=NC(=NCCC1)O2 C=NN1C=CC(C#N)=NC=C1C=O CC(=O)C1=C(C)C(=O)NC1=CNO CC12ON=C3C4=CC(O)(CC1C4)C32 CCN1C=CC(=NCC=O)C1=CO C1=NOC2C3CC4=NNC2C1(C4)N3 CN1CC(=O)OC(NNC2CC2)=N1 C=C1C23CN=C(N2)C1(O)C1CC3C1 Clc1c(CC2CN2)[nH]c2[nH]ccc12 O=C1NC23C=C(C4OC42)C2C3C12O C=C1C(=N)NC(C(CC)=NN)=C1N CC1(C)CN=C2C(=NO)ONN2C1 NC12C(CCC13CN3)N1C=NCC12 CN1NC2=NC=CC2C1(CO)CO CC1C2N(O)C=NN3CC4OC4C123 CCc1c[nH]c2c1C(C)(CO)N=N2 C=C1CCC2C3C=CC4=C1CC2C43 Oc1csc(-n2cc(Cl)c(Cl)c2)c1 CC(=N)C1=C(CC=O)NOCCO1 CCC1=C(C)NC(=N)C1=NCCO CNC1C2C3=C(CN=C3)NNC12C CC1=C(C)CCONC=NN=CC1 C=C1C=NNCC2C=C(NC=N2)O1 CS(=O)(=O)C12C3CNC1C2N=C3N CC1=C2N=NCC23CCC3C=NN1 C=C1C2=CC3C(N)C4CC13C(C2)O4 OC12C3C4CCC15CNC(C5O4)C32 CC1NC12C1CC3C(C14CO4)C32C O=C1OCC2CC3(CCNN13)CO2 C=CCC(=O)C1=CC=CNNC1=N CC1N2CC3(C)C4(O)COC13CC24 OC12CC3OC1CC(C1CN1)=CC32 CC(O)=C(C)c1cc(O)cc(N)n1 CC1c2nnc(=N)[nH]c2C1N1CC1 C=C1N=C(C)NNC2C=CC(=C2)O1 CC1(CO)CN2C=C(O)SC2=NN1 Oc1ccn2c1C13NC1CC=C3C2 C#CC12CC3C=C1C(CC1OC12)N3 CC1=CCc2c3cnnc-3cnn21 CC1=CC(C=O)c2oc1c(Cl)c2Cl CC1=CNS(=O)(=O)C1=NC=CC#N C#CC12N=C3SNC(=N)N3C1C2C C=C1N(O)C2=NC13COC1C3C21N C=CN1NN=C2CC3C(N)C3N=C21 O=CCN1C(=O)C=C2N=CC(O)=C21 C=C1OCC2(C)CC3C=C1C2C3C OC1(Cc2coc3n[nH]nc23)CC1 CC1=C(NO)C(C=O)n2cccc21 C1=NC2=NCC3CCOC(=CN1)C23 CC1=C2OC3C4NN=C2C4(O)C13 C=Cc1nc(N=NCCNC)c[nH]1 CC12C=C3C=NOC1C1C(NC2)C31 C=C1C23C=CC4(C)C2CCC14OC3 CC1CN2C(=O)N3C=CC4CC43C12 CC1(N)C=CC2(C=CC(NO)=N2)C1 CCC12CCN3C4C(C)=C1CC4C32 CC1=C(NO)C=CC(C(C)N)N=C1 CCOC1=NC=C(N(C)C)C1=CO Cc1csc(=Nc2ncsn2)n1C C=Nn1c(=O)c2c(C)occ2n1N C#CC(=N)C1=C(NO)C(NC)CO1 NC1C2C=CC(C3OCC4CC43)C12 O=C1C=C2C3CCCC24CCC13N4 CC(O)=C1c2conc2C2CC1C2 N#CC1(C=O)CC(N)=NC12CC2O C1COCC(=C2OCC3CC2O3)C1 NC=NCCCC1CS(=O)(=O)N1N CC#CC(=O)C(=N)C=C(C#N)NO CC1CC2=C3CC4C1C2C4(C=O)O3 CN1CCC=CN=C2C=C1CON2 CC1=CNN2C(=N)CCC=C2N=C1 OCCC1=NC2CC23C2CC2ON13 Oc1cn2cc1NC1CN(CC2)C1 CC1=Cn2occ(c2=O)OCOC1 CC1=NC(=O)c2oc(C)nc(=O)c21 OC1C(O)C1N=CC1=CNNC1 C=CC1=C(N=NC)CNCCNN1 C=CC12C3CC4(CC31)ON=C(C)C42 CNC(=O)C(C)C1=CC2(C=C1)CO2 C=C(C#N)c1[nH]c(=N)oc1N=O COc1c2c(c3n1C(=O)C3)C(=O)N2 C#CC1(C2=NNC(C)C2=CN)CC1 O=C1CCc2ncnc3cnn1c23 C1=C2CNN=C2C2C(C3CC3)CN12 O=CCN1C=C2C=CN=C2NC=N1 C=C1CON=C1c1cc(N=N)c[nH]1 C=NNc1sc(C=CO)c(O)c1C CC1(C)C(O)C23CC(=NN2)C1(O)C3 C#CC1NC(ONC(C)=N)=NC1=O CC1Cc2[nH]nc(N)c2C(=CN)O1 OC12CN=C3N=NC=CN3C(C1)C2 OCC(O)=C1C=Cc2cncn2C1 C=CC12C(=C)C3C(C1=C)C1CC3N12 NCC1=NOC2C=C(CON1)OC2 CC1C2CC3(C)OCC14OC2OC34 CC(O)=C1OC(CN(C)C)=NC1=O O=CC1=NCCON2CCNC2=N1 CNC1=Nc2c(nc3n2CC3O)C1 CC1=CC2=CC3NC14C(=N)NC3C24 NC12C3C=C4C(O)C(O)(CC41)C2N3 C=Cc1nc2c3c(cn2[nH]1)C(=O)O3 Nc1c[nH]n2ncc(CN3CC3)c12 C=CC1=C2C=NCC(C)C2CON1 N=C1C=CCON2CCN(O)C2=N1 CC1CC2N=CNOC(=O)C#CC12 N=CN1OCc2c(N)c3n(c21)CC3 OC12CCCC13ON=C1CC2OC13 C=C1CC2=C3C(=NNCC13)CCO2 C=C1CN2C(=NN=C1C)CCN2C CCNn1ccc2c1=NCCC=2N OC=Cc1cccn1-c1nnon1 CC1C(=N)N=C2C3NC=NC3=CN21 C=C1CONC1=C1C=NC(=N)N1 CON=C1COC=NNC=CC=N1 CN1CC2(N)C3CC4(COC3O4)C12 NC12C=CC3(O)C=CC(CC1)C2=C3 Nc1n[nH]c2c1C(C=O)=CN=CO2 CCC=C1NC(=CC#N)CN1C=N CCC1=Nc2c(s[nH]c2=O)N=CO1 Cc1cc[nH]c1C1=C(NO)CCO1 CN(C=C(NC=N)C1CC1)C(N)=O C1=NNC(C2C3CN4CC(C4)N32)C1 C=C1CN=C2C(C)=CC(=N)N=NN12 C=CC1=CC(=CC=NC=N)NC1=O NC1C23NC(=O)NOC12C1CC3C1 COC(=C1C(C)=NNC1C)N1CC1 CC1C(C(O)(CCN)C(=N)N)N1C CC1C#CC=NN2C=CC(=NN1)S2 O=C1C=C2CCC3=CCN=C(N1)C32 CC12CCC34C(N)C=NN3CC1C24 CN=C(N)C1CC2CC3C(=O)C2N31 N#CC1NC2C3C=C1C1C(N3)C21O CN1CC12C1(C)CN(C1)C21CC1 CN1C2CN3CC4C5C2C1C3C45N CN1OC(=O)C2=NCC(C)(N)CN21 CC(=O)C1=CC(=N)C2=CNNC21C C=NOC1=NN=C2C3C4CC12OC43 CCC1=CNC(=O)N=C(CCO)O1 O=NC1=CNNC1CC1CC(=O)N1 CC(=O)NC1=C(O)Cc2cocc21 CC12CC=C3C=CC4(CC1=NN4)C32 CCC(C(=N)N=C(C)N)C(=O)NC CC1=C2C=NN(CCNC(=S)N1)C2 NCC=C1CON=C2C=C(O)SN12 CC1N2CCC13C(C=CN3C=N)C2 CN1CC2CC3NN=C4NNC2C431 CN=c1occ2n1CC(O)=CC=C2 COC12OC3C4CC1C2(N(C)C)C43 N=C1CC2C3(N)C4CC(O4)C23N1 CC1CC2C3C4C5OC(CN43)C5N12 CC12CCC1N=C1C=C(N)N(N)N12 N=CN1CC23CC(=N1)C(N)(CN2)C3 CC12CC1N1CC(O)CN1C2=NN N#CC1=C2CN3C4CC=C2CC4C13 CCC(=NC1CC1)C(C)=CNN C=CC12C3CCC4(O3)C(=C)CN1C42 N=C1NCC23C=CC4C(CCC142)C3 CC12C(N=CN)=CC3C(=O)NC1C32 Cc1nc2c(s1)S(=O)(=O)C(=CO)N2 CN1C=CC=NC(=NO)C1=CN C=CCC12ON=C3NC(CC31)C2=C CNC12CC3=CC1C(N)C1(O)C3C21 CC1=CN=C2CCC(COC1)N2 C#CC12C(=O)NC3C4OC1=CC4C32 CN=Cn1ccc2[nH]cc(C=N)c21 NC1CN2C3C=COC4C(C=C13)C42 C=C1OCOC=Cc2non1c2=O CC1=Nn2oc(cc2=N)OC=CC1 NC1C(O)C=CC23CC1(CO2)CO3 CC12CNC3CCC(C31O)S2(=O)=O CC12C3C(=O)NC3C3(N)CCN1C32 C=CC(=O)c1ncc2ncc[nH]c1-2 CC(C=C(N)C1=CC2OC2C1)=NN C=CCN1OC2CC3NN=C1C32C NC1CON(C2=NOC3(CC3)O2)C1 CON=C1NC2=NCC(C)CN2S1 CN(OC12CC1C=CO2)S(N)(=O)=O CC12CCC3=C1CC1C2OC31C#N C=C1OC23C=CC=C4C2COC14C3 Clc1ccc2cc1CC=NNC=C2 NN1C2C(=O)NC2CC=CS1(=O)=O O=CNC12C(O)C=C3C4C(OC31)C42 O=CC1NC2CN3OC=NN=C3C12 O=C1N=C2OCC=C2C2=CCC=C12 CCC1=NC(C)=Cn2nncc2N1 COC1=CC2C3=CC4(O)C(C3)C1C24 N=C1OCC2=CC34COCC3N4N12 CC1=C2CCCC3OC4C(C2)C4C13 C=CCN=C1OCC(NN)=C1C CC1=NSN2OC3CC(=O)C3N=C12 O=C1C2CN2CC23CC1(CO2)CO3 NC1CC2=C3C1=NN=CC3OCC2 CN1C2C=C3NC(=NN)NC=C3C21 C=C1CC23C4CCC2(C=NNC43)O1 Nc1occ2c1N1NS(=O)(=O)CC21 CC1N=C2NCC34CCC1(C=C23)O4 C1=NC=Nc2cc3c(cc2O1)OC3 CCC12OCC3OC1C1=CC32OC1 CC(O)CC1=CC(=CNN)NC1=O NN=CCC(=CC1CC1)N(N)C=O N=C1CC2OC(N)=C(C=O)C=C2N1 ON=C1OC23CC(C=C1O2)C1NC13 CCN=C1C=CCOC1=CNOC CC1C2(C)C3NC(CCC3N)C12O C=C1C2=NNC34CC2C(NC3=N)C14 NN1C=C2CC3CC3CNN=C1N2 NC12CC34C=C(CC3)C1C2C(=O)N4 CC(N)C12C3C(CCN31)C1OC12C C=CC12OC3C4=CC5C3C1N5CC42 N#CC1=C2C=NC1=CC=NN=CC2 CC1C=CC2=CC3CC24OC3OC14 C1=NC2C3C4=CCNCC4C2C3N1 NC1C=CC#CC2=CCN(C1)N=C2 NN=C1NC=C2C=NC(C(=O)O)=C21 Cc1n[nH]c2c(c1=O)C(C)(N)C2 COC=C(C)N=CN=CC=CNO CC1NC12C(=O)C1C3N=C(N)C2C31 CN=C(C)C(=CNO)S(=O)(=O)NO CC12CCCC=CC=C(O1)C1OC12 CNC1=NC(OC)=CCCC=C1C CC(C)(CO)CC1=CN=NC=NN1 O=CC12C3C=CC14CN=CN4OC32 NC1C=CC2=C3C(=NN=CC31)NC2 C1=C2C(=CC13COCO3)C1CC2O1 N=C1N=CC2=CC3CN3C(=S)N2O1 C#CC1=C(C(N)=NC)OC(C=O)O1 C=C1C2=COC3C1(O)CN1C2C31C C#CC12CC3OC4CC1C=C4C32C N=C1CCC23C=C(N1)C1C(CC12)N3 NC1CC2C3OC14OC2C3CC4N C#CC1=C(C=NC)CC(=N)N(C)N1 CC(C=O)N1CC2(C)CC(C=N1)O2 CN(C)C12C3OC(C1N)C2NC3=N CC1C=C2CC3N4CCC13C(N)C24 NC12C#CCNC3CN(C1)C3C=C2 CC1(C2=NCC(C3CC3)ON2)CO1 C#Cc1csc(N=c2[nH]cns2)n1 CN1N=C2CC3C1C1CC2CN3C1 NCC12C3C=CC14OC3C1C4CN12 CC1=C2OCC3CC(C1=CCO)C23 C#CCC1=CNS(=O)(=O)C1=NCC CCC1(C)ON=CN=C1C=CNN CC#CC(=CNOC)c1ccsc1 O=C1OC2C=C1N=CNCC1CC12 O=c1cc2nc(NC3CC3)on2s1 CC12CC(=CN)C(C(N)=O)=NN1C2 CC1=CCC2=NC(=NN(C)C1)C=C2 CC12COC3C4C5CC(CN54)C31O2 C#CC1C=C2C3C1C1CC2(N)CN13 CC12CC3=C(COCC3(CN)O1)O2 CC12C=CC=C3OC(O1)S(=O)(=O)C32 Cc1[nH]nc(C(O)C2CO2)c1N=N C#Cc1csc(C2=NCC(=C)N2)n1 CC1C#CC(N)=NOC(C=O)OC1 C=C1CC(N)C2N=CC(=CNO)C12 C=C1C=Cn2[nH]cc(c2=N)CCC1 C#Cc1c(O)coc1C(C)=CNO NC1CC23CC4=CC2CNC3C1C4 CC1=NC2=NN=CCNCC1=C2 NC12CC3=NNC4C5C3C1CN5C42 N#CC1CCC2=CON=CC2=NO1 CC(N)=NN(C)C(=CC=O)C(N)=O N#CC12C=COC3=C1CC(O2)C3=O C=NN1CC2=C3C1C=CC3(C)OC2 C=CC1N=NC2=C(NN)C(C)C=C21 CC(N)C1=CNC=CN(C=O)C1=O C1=C2CC3OC2C2(C1)CCNC32 C=CCN(CC=C)Nc1c[nH]nn1 OC1C2CC3=CC14CC2OC4O3 O=C1C2C3=COC1(C3)c1nn[nH]c12 O=C1C=CC(=C2N=NC=C2CO)N1 C=NNC1(C2CN(N=C)C=N2)CC1 CC1=CC2CC3OC14C=COC3=C24 CCNc1n[nH]cc2c(O)cnc1-2 O=C1NC2=CC1=CNCCC#C2 C1#CC2CC3(C=C(C=C1)CC3)CO2 CC(N)C1=NC23CC2(CN2CC23)N1 CCN1NC2=NC=CC2C12CNC2 C1#CC2CCCC3C2CN3CC=C1 C#CCC12NC3C4C(OC31C#C)C42 Cc1c2c(N)coc(=O)c2nn1O C=C1CCN=CN=C2C=NN1N2C CCC(=CC#N)NC=CNC(=N)N N#Cc1ccc(C=CO)c(=O)cc1 CC1=CCN2CCC(O)(C#C1)CC2 CN1N=C2C=NON=C2C1C1CO1 CC1(C)CN2C3C4=CC1(C=CO4)C32 CC1(O)CC2=C3CC4OC2C1C4O3 NN=C(N)C1(C(N)=O)OC2CC1C2 CC12C=CC3CC1C(C3=O)C(N)=N2 C=C1OC2CCCc3nccc1c32 C1=CC23CNC(=N2)NNCC1NC3 C=C1C2=CC3OC1(CC3C)C(=N)N2 CCN1C2C=C(C)N=C(N)C1C2=O C=CC(N)C1=CN=C2C=NN=C12 C=CC1=C(C)Nc2ncsc2N=C1 CCC1C2=COC3CC(C23)C12CO2 C=C(OC)n1[nH]cc(N=O)c1=NC CC12C3C4=CCC(NC1(CN)C4)C32 N#CC12NCC3CC1C1=NOC32C1 CCC12CC3CC14NC=NC4=NC32 C#Cc1ncc2c(C)c[nH]c(C)c1-2 OC12C=NNC3(C=C(C1)C1NC13)C2 CC1=C(C)OC2=CNN(N)C2=NC1 C1=NN=C2NN=CC13CC1CN3C21 Cc1[nH]c(N=O)c2c1C=NC2=N NC1CCC2N3C4C5COC4C5C123 N=C1NC2C3=CC4(O)C(C3)C1(O)C24 O=C1CC2C3C=C1C1C(O)CC2N31 CC1=C2C3=CC4NC2C4C2NC3C12 N#CC(C#N)C1=C2NOCC2N=C1 CC1=CCON=CN=NC=C1NO C=CN1C(=C)OC(=C)N(C=C)C1=N O=C1CC2CONC3=NC1(CO3)C2 CN=Nc1c(CC(=O)O)n[nH]c1C CC1=NNCc2cnn(c2)C(C)=N1 C1=CC2(C=C1)CN=Nc1c[nH]nc12 CC#CC1CCCN=C1C=CNO NC1C=C2C3CC4(OC3CC24)C1O CC1=C2C(=N)N=CC2=CCCOC1 C=C1CNC(=O)CC(C)(C)C(N)=N1 NC1=CC2=NC3C(COCO1)C3N2 CON(C)C(C=C(N)C(C)N)=NO O=CC(O)C(O)=Cc1[nH]ccc1O CN=c1c(Cl)c(NO)ccoc1=O C=C1C2C3=CC4C(O3)C1N4C2C=O CC12CCC3=C(C=NC3=O)C(C1)C2 NC1=NC2=NC=CC2(O)S1(=O)=O CCC12CC3=C(C)C(=O)N=C3C1C2 Cc1sncc1C1=C(O)C(=O)C=N1 C1=NNCC2N3c4ccnn4CC123 C#CC1=C(C)C(=C(C)C#N)N=CO1 Nc1cn2n(c1=O)NC1(C=C2)CC1 CC1C2=CC=CC#CCN1NC2=O N=Cc1c[nH]nc1-c1ccns1 CC1NCC1N1N=CC(=CO)C1=O O=C1NC2C3Oc4cscc4C23N1 NC12C3COC14CC1(O)C(C4O3)C12 O=C1OC2=CC13C1CC4C(O1)C2N43 COC1=COC2=NN=CNC2=C1N COC1=C2CC(C1)OCCCCO2 NCC=C1CNN=C2ON(O)C=C12 CC1=C2C=CCN3CC=C(CO1)C23 O=C1C2OCC34NC5CN(C5C13)C24 COC1=CC2=NNC(C)C2=CN=N1 Nc1ncc(-c2snc3c2NC3)s1 C=C(C#CC1CN2C=NCC12)C=O C=CC12C=NNC3=NC(C=C31)C2 CNc1nc2c([nH]1)CC(O)=C2 C1=CC23CCNC=NC(=N2)OC1C3 CC12C=CC=C(N=CN)N1C(=O)C2 CC1=CC2C=CC13C1NC1C(=N)N23 N#CC1C2CC=C3C4CN4N=CC312 C=CC1CC2=NC1=CCC#CCN2 O=C1CC2(O)C#CC#CCC1NC2 O=C1C2CC3NCC2C2N=C3NC12 C=C(N=CN)C1C2C(=O)NN(C)C12 C=CC1CN=CC(C2CC2)=CNN1 CC(=CC1=NCC(C)=C(C)N1)CO CC(O)C12CCC3=C1OC(O3)C2N C#CC1=NC(=N)N(O)C(C)=C(C)O1 NCC1CC2=CONC(=O)C2=NO1 CCC12OC(C)C3=C4CC1N(C4)C32 NC12CCC(=CCNNC(=O)C1)C2 C=C1C2(C(N)CC)CC3C(N2)C13O C#CC12CC3(CN1)NN=C2C3O O=C1C2=CCC3CN3N=CN1NC2 OCC12CC=CN=CNC(=NC1)C2 NN1C2=NC3CC14COC3C4C=C2 COC1C#Cc2ccc(o2)C=NO1 CC1C(=O)N2Oc3sc(N)nc3C12 CC1C2C=C3C1C1C=CC3(CC1)N2 C=C1OC23CCC(C=C1O2)C31CO1 NC12CC(C=CC13NCC1NC13)C2 C=C(CN)CN=CC1=C(C)NNC1 CC12OC3C4CN4CC3(O1)C1NC12 NC1C2CC34C=CNC(=N3)CC2C14 CN=C1C=C(NC)C(NN2CC2)=N1 C=C1CC2=NN=CN(CCCO1)O2 CC1C=CC2(O)C3(O)CC(=N)NC123 OC1C2=CCC34OC(CC3O2)CC14 CC1=NNCC2=CCN(NC1)C2=O CC1CCc2c(c[nH]c2N=O)N1 C#CC1C2CC3=C(CCC31NC)O2 CC(=O)C1CC2(N1)C(C)=CC=C2C CC1C(C)C12OC1=CCN=CN1O2 C1=CCOC=C2CC3CC(=C1)C2N3 C#CC1(CC(N)=NN)NC1C(=O)O C1=CCC2(CC2)C2ONC(=NC1)O2 O=C1C2CC2C2=CC3(C=CN12)CC3 CC1CC2C3CN2CC3=CN=CN1 OCCN1C=C(O)C2=NOCCN21 O=C1N=C(CCO)C(=O)NC1=CO C=C1NC(=N)CC(=O)C(=CC#N)N1 C1=CC2=NON(C3CNC3)C2=NC1 CCC1=NCCOC(NN(C)C)=N1 CC1=CC2OC23C(N)=NOC3C1=O O=C1C=CCN2C3CC4C(C3)C4N12 C1=C2CCNC3CCCN=C(N1)C23 COC12C3OCC4C1C2C1C3C41C C1=CNC(NCCN2CC2)=NN=C1 NC1C=CC2=CN=C3NNCC1=C23 NN1CC2CC(O)CC=NOC1=N2 CNN1C2(CC2)C(C)(C)OS1(=O)=O CC1=CC2ON=CNC(=O)C=C1O2 C1=NCC2OC3C4NC(C4ON1)C23 CC1CC23CNCC4(C=C2C1O4)O3 C#CC1=NC=CC(=NN=C)N(C)O1 OC12CC3OC4=NN=CC3CC1C42 C=C1CN=C2C(O1)OC(=CC)N2N CC1=CCC2=NC(=CC2=O)N=CN1 NC12C#CC3CCC(CNC1C2)C3 NCC#Cc1cc(N=O)[nH]c1CO NC1C=C2C3C4C=CC3C3C1C2C43 NC1C2C3C1C1(CC1)N2C1CN3C1 CC1C2=CNC=NN2C(=NO)C1O CCC12OCC1C1CC23C=C1CC3 CC1NC2C3C4=CC1C(CCO4)C23 NC1=CC2=NCC=CON2NC1=O CC1=CC=NCCC(C(C)O)NN1 CC(NCCN)c1c[nH]c(N=O)c1 CC1=NC2C3CC4(O)C3CC(N1)C24 CC1(Cc2snc(NO)c2O)CN1 COC1=C(CCCN)NN=CN=C1 O=C1CCC2=C3C1=CCC3NN=C2 CN1N=CC2C(N)C21C1CNC=N1 NC1=NN=CC(O)(C=O)C2NC2C1 CN=C1NOC(C)C2COC(N)=C12 O=C1C(C#CC2CN2)C2CCON12 C(=C1C2NC2CC2COC12)C1CN1 C#CC12C3NC4C(C41)C3S2(=O)=O C1#CC23CCNC2C3OCC=CC1 O=CC12C=C3CC1C1CN=C3NC12 NN=CC1C(CO)=CC(=NN)C1O CC12C=CCC=NN=C(NNC1)O2 C=C1C2(NC3CC3)CN(C2)C1(C)C CC1C2C=C3C(=CC(C=O)C31O)C2 C=C1C2=CC3(N)C1NC1C2=COC13 NC1C=C2C3NCCC24C=CC13C4 O=C1CC2=NOC(CC2)OC=CN1 CC1C2CC1(C)OC(NN1CC1)=N2 CC1=C2NN=CC2(O)C(C)CN=N1 C#CCC12C3C4CN1C2C(C=C)N43 O=C1C2C=C3OC1C1(O)C3=NOC21 C=C1CONc2c1oc1c2CC=C1 CC1=CCCOCC2=NN1C(=N)C2 NC(CO)=NC=C1CC(=O)NC=N1 CC1C2C=C3OC2C2COC3C12N NN1CCN2CC3CC2C(N3)C1=O CC1=C2C3C(C)N3C(=N)C23CC3O1 NC1C2CCC3=CC4C(O)C2N4C31 OC1C2=CNSC2=Nc2csnc21 C1=C(c2nnn3[nH]cnc23)CCC1 C1#CC2N=CNC3C(CC23)OCC1 C=C1C(N)=CC(CC)=NN=C1NN C1#CCC2CN=C(C=CO2)NNC1 OC1C2C3OC14CNCC1CC14C32 C1=NC=C2OCOC3=NOCC23N1 CC1C#CC(N)C#CC#CC12CO2 CC(N=C1C=NC(C#N)=N1)C1CO1 CC1N2N(C=N)C(=N)C3=CC=CC312 CCC(=CN=C1CNC=N1)C1CN1 CC(=N)C=C1NC(=O)C=C1C=NO CCC1(N)C2N3C4CC(CC43)C21N OC1CC2CN=C3SN=NN3CC12 C=CCC1=CC(N)=NN2CCN=C12 O=C1C2C=CCn3ccc(c3)C1O2 CC#CCC(O)=C1NC(=S)NC1=O C=CNC(C#Cc1conn1)=NC NC1CC23C=NOC24C(CN3)C14N Cc1coc2c(c1=O)C=C(O)C2=O C=C1OCC2NC3C4(N)CC4NC123 CC1=CN2SN(C)C(=O)C2=NCC1 O=C1N=C2CNCC#CC=C1O2 CCN1C=CC23OCC2(C)NN=C13 CC1=CC2(C=O)CC2C(C)C(N)=N1 CN1CC(C2CO2)N=CC=CN1 CC12C=CC3N1C(CCC2)S3(=O)=O CC1=CCCN2C3COC3C(=O)N12 CC(C=Cc1ccn[nH]1)(CN)CN N=Nc1c[nH]nc1C1=CCC(=O)O1 CC12C=C3CC14NCC1C4C3C12O C=CCC1=C2N=NC(C)C2ON1 N=c1scc2n1C1(CC1)CC(O)=C2 CC1CNNC=NC2=NCC1O2 CC1C2NCC34N=C(NC13)C(N)C24 CC1C(=O)CC23CC(NO)=NC2C13 CC1=CC(C)C(N)=NCC(=O)C=C1 NC1(C#CC23C=CC(C2)C3)CNC1 COC1C2C3=CC14CN2CC4(N)C3 O=C1C2CC34CC(C5CN3C5)C2C14 CC12CC3(C)C4=NOC3(C1)C1C4N12 O=C1C2C3CNC24CCC=C4C13O CN=C(CO)C(=CNO)CCCN C=CN=C1NC(CN)=NNC=C1C C=CCN=C1N=C(NC)NC1=CN O=CC12CNCC3(C1)ON=C2O3 Cc1cc(ON=CN)sc1CC=O C#CC1(C)COC(N(N)C(=C)C)=N1 CC1=C(C=O)NC(=CC(N)=O)N=N1 CC1=NNC=NNCC1=CN(C)C CC=CN1C=NC(C(N)=NC)C1=O C=C(C)C(O)=C(O)c1[nH]ccc1Cl CC1CC2C3C4C=CC(C=C4)C23C1 C=NN1CC(N)C2C3N4CC(C4)C231 CNNc1cc(COC)oc(=N)n1 CC1=Nc2c(O)csc2N(C=O)O1 CC12CC1(c1nc[nH]n1)C(=O)CN2 CCC1=C2OC(=N)N=CN=C2SN1 CC1NCC2C3C1C(=NN)N(N)C23 NCc1c(N=O)[nH]c2c1OCCC2 N#CC1=CC23NN=C4NC2C1OC43 C=C(C)CC1=C2CNN=C2ON1N C#CC(O)=C1c2csnc2C2CC12 CC1Oc2cc[nH]c2N=NC1=O C1NCC1N1C2C3OC2C2OC3C21 CCCC1=NC(C)=CC(CC)=NO1 CCN1C=C2OC3CCC2(O3)C1=N NC1=NC2C(O)C(=NO)C1S2(=O)=O CCCc1c(CC)[nH]c(N=O)c1N C#CC1=C2N=NCCC2(C#N)NN1 CC12N=C3NOCC1OC1C(O3)C12 C=C(CC=O)C(=N)C1=CNN2CC12 OC1C=CC2=NN=C3NOC1CC23 CNn1[nH]c(=N)c2c(C)oc(O)c21 OC1C(O)C12CON1CCNC1=N2 ON=CC1CC23CC2(C1)NC(=S)N3 CC12C3=CC(N)C1CC2C(=N)N3 C#CC1C(CC)N=C2C=NN(O)N21 O=S1(=O)NN=C2NOC3(C=C21)CC3 N#CCC12C3C(=O)CC4C(CN41)C32 O=CC1=NOC23C4C=CC12COC43 CC1COCC2C=C3CC1CC3N2 NC1=NCCC23NC12CC(=O)C3O CC12CC1(N)CON1C=CNC1=N2 CCN=C(C=O)C(C)=C(CO)NO CNC1=C(C(=N)N)NC=CC(C)=N1 CC(C#N)C1CNC1C1CNC=N1 OCC1CC2=NC1CCOCCN2 C=C1C(N)C2=C(N)CN=C2N1NC OCC1CC23C=NNC24C(CN3)C14 CC12CCC34CC(=CN3)C(=NN1)C24 CN1CC(=C(N)CCO)C(C#N)=N1 COC(=N)C1=C(NO)CCC(=O)C1 CNC1=NC2=NC=CC2(CN)NC1 CC12C=CC(=C1)OC=CCC(=O)O2 CN1C(=O)C2CC1=CCNCCN2 CC1CC1C1=CC(=N)C(=O)N1 C=CN1C(C)=NNC(N)=C1C(=O)O C=C1OCCCC2C=C(OC2)C1N NC12CCC13CC1CC1C31CN1C2 CC1=C2OC3(C)OC2C(C)(O1)C3O N=CC=C1C=CC=C(C=O)C=NN1 C1=C2CC3C4CC5NC3(C2)C(C1)C54 O=C1CC23NCC4=CC2(O)C1OC43 C=CC1=NNCC2COC(=N2)NC1 C#CC12C=C3OC1C1ON=C3C12N CC(O)CC1=C2N=NCC2C=NN1 CC(=O)C12NC1C=C1C(N)=NNC12 NCC1=NC=CC(CC=NO)=NO1 CC1CC2(C#CC=CC3CN13)CC2 OC1Cc2nn3occ(Cl)c3c21 ON=CC12CC(C=C3CON=C31)N2 CC12COC3CNC(=NNC1C2)O3 Cc1[nH]c(-n2ncc(=O)[nH]2)cc1Cl CCN=C(CC)C(C)=C1CCNN1 O=c1cc(C2Oc3cscc32)o[nH]1 C#CC1C(=C)N=C2NOC=NC=C21 CC12C3=CC(N)C1CC2N(O)C3=O N=CNC(=O)C1(O)CCN=C(N)C1 NC1C=CN2C=NOC(=O)CN2C1 CNC1C(O)C1c1nc(N=O)c[nH]1 C=C(C)C1(C2C3C(O)C=NN32)CO1 OC1CC2=C3C1=NNCC3OCO2 CNC1=NCCCC2(C)CC12OC N=c1cc(C2(O)C3C=NNC32)[nH]o1 N=CNc1nccc2c(c1=O)OC2 CC1CC2CN(C)C3=NC=NOC312 CC12CNCC13C1CC(C=CC23)O1 O=C1OCC2CN(C2)c2coc1n2 CC12CC1(CN)C1C(=CC3CN31)O2 CC12C=CC3C4C=C1C(N)C4C32C OC1CC2=CCOC3=C2C(C1)OC3 CN=c1c(C)c2c(C)csn2n1N N#CC1CS(=O)(=O)C=C1C(N)=NO CC1=NC(NC=O)=C(CO)C=NO1 OCCC1=NC23CC2CNNC3=N1 C#Cc1c2c(c3ccon13)N(C)C2 N=c1nc(C23NC2C=CC3O)s[nH]1 NCC1C2N3C4CN(CC43)C12CN C=CC(=O)C1=C(N=O)CCCNN1 N=Nc1[nH]cc2sc(C(N)=O)cc12 CC(N)C1=C(NN2CC2)CCN=C1 O=CCCCC1=CNOCCN=N1 CNNC1=NN2CC(N)C=CC2C1 CC1=NC(=O)N(C2CC2C)C=CO1 CC1=CC(=NCCC=O)OC1=CO C1=NOC2(O1)C1C3CN3C2C2CN21 N=CC=C1CC=C(C=O)C(=O)ON1 CONc1nn2c(cc1=O)CC=N2 CC1=NC2(C=CN1)C1NC(=N)NC12 CC1=C2COCC23CC12CC=C3C2 Nc1n[nH]c2c1N=CC=C(CO)O2 OC1CC23CCC(=N2)NOCC1C3 N=C1CC(O)COC2=CC(=NC2)N1 S=C1NC2=NC=CC2C2CN12 COC1c2[nH]c(c(O)c2Cl)CC1O CC12N=C3NC1C1CC3=C(CN)C12 CCN1C=NCC2=C1NCCC2=O CCC1=NCC2=CN(C)N(O)C2=N1 C1=CC23OCC4C=C1CC2CNC43 C=C1CNC2=NC3CC2C1(C)C3O CC(O)=Cc1cc(C)oc1C1CO1 O=C1CCC2=NC3=CNOC3=NN12 CS(=O)(=O)C1CC12OC(=N)N=C2N NC1=C(C2=NC=CCN2)OC=CC1 C1CN2CC34CC5NC3(C1)C2C5O4 CC1CN2C3CC3(O)C=CN2C1=O CC12C3=CCC1CC2CC31CCN1 NC12C3COC4C(C4(O)C31)C21CN1 CN(O)c1nc(=N)cc(O)cc1O CC1=CNC2C3NCCC23CC1=O N=CN1C(=O)C2(OC=CO2)C1CO CC1NC2(C)C(N)=NC3C(C1=O)C32 OC12C3=NOC1OCCC2OC=C3 CC1C2=CC3C4CNCC2(N)C4N13 CC12CC3C4=C(COC4)C(CC31)N2 N=CC=C1C=C(C2CO2)C(=N)N1 C=CC12C=C3OC(CC)(C1)OC3=C2 C=C1CC2C(C#N)C3C(C)N=C1N23 C=C1COCC=CC2=NN=CN1N2 N#CC#CC1=CC(=N)S(=O)(=O)N1 N#CC(N)=C1NN=CC=CS1(=O)=O CC12OC1C1CCNN=CC=C2O1 CCOC1=CCN2CCC(=NN)N12 O=c1[nH]cc2c(Cl)c3c(cn12)OC3 C#CC12CC1C1=NC3(C)CC3N1O2 C1=C2CCC13OC2C1=CCNCC13 N=C1NC2=CC(CC2=O)NN=CO1 C1#CCC=C2CN=NC2=CNN=C1 C1=NC2=NCC(CCON1)C21CN1 Nc1[nH]c2c3c1NCC=C3CC=C2 CC1=CC2=NNCC(CO)N2S1 C#CCNNC=C(O)c1cnsc1 NC1=C(NCC=O)C(=O)C=NC1=O CC12C=CC3C4(O)CC3(O)C1C4C2 CC12CN=CC(=CNO)CC1CO2 CON=C1C=NC(=O)C(C)=NC1=N N=CN1CC2=CC=COCOC1=C2 C#CC1C2N=CNC23C=CC2C3N12 C=CS(=O)(=O)C1=C(C)NC(=O)C1=N CC1=C2CC3C(CN)C3N=C2ON1 C#CC1=NCC2C3C(NC)C3ON12 NCCC1CN=Nc2[nH]ccc2C1 CC12C=C3C4=CCC1N(C4)C3CO2 CC(O)=Cc1cc(N2CC2)n[nH]1 O=C1CC2=C(C3CCC=C3C2)N1O C=CC12CC3(N)CON=C(O1)C3O2 C=C(N)c1c(Cl)c(=O)on1C=N C1=CCC23CNC4CNCC42C3C1 CCC1Cc2c(c[nH]c2N=O)N1C CC#CC(C=C(NC)NC)=NOC C1=NOC2CC2C2COC(=NN2)N1 CC1=CN=C(N)C2=NC3CC3(C)N12 N=C1C2CCC(CC2C=NN)N1N NC1C2C1C1(O)CN2c2snnc21 C=Cc1[nH]c(N=N)c(C=NO)c1C C=NN=C1CC=C2C=COC(N)=C21 C=CN1C2C3CN(C)C(C32)S1(=O)=O N=C1N=C2NOCOCCC3C1N23 CC1=C2COC3C4ON=C2C4(C)C13 C=CC1=NN2C(=CCN=C2CO)C1 NC=NC1=CC(=O)N=C1C(O)CN CC(N)=NC(C)=C(C=O)C1CC1C O=C1NC(C23CC=NN2C3)=CCO1 C=NOC1(OC2=NCC3CN23)CC1 CC1COC(=C2C(=O)C=CN2C)N1 C=C1c2[nH]cnc2C(C)=C(O)C1O CC1(C)NC2=C(COC=CO2)C1=O C=c1cnc(=O)n2c1=CC1(CC1)O2 O=C1C2=COC=CCOC3C1OC23 S=C1NCC2C3=CCC4CC34NN12 CC12ONC(=O)C=C1C(=N)N=C2N C#CC(=NC)C(C)=C(C=C)NO COC1=C2NCC(=O)C=C2N=C1 C=C(C(=NNCC)NO)C(O)CN CC1CN(N)C(C2CCCCC2)=N1 O=C1NOCCN=C2N=CC1=CN2 Nc1ncc(C(=O)c2cncs2)[nH]1 C=CC1C(C)C1(C)N=c1nn[nH][nH]1 CCCc1[nH]c(N=O)c2[nH]ncc12 NCC1C2NC34CC(=CC13)CC2C4 C=CCc1nc(CO)[nH]c1N=N NC1=CSN2OC3CC(C3)ON=C12 CC12C=C3C(=N1)NOC31CNCC21 CC12C3OC3C3C4COC=C4C1C32 C=C1C(C)=C2CC1NN=CN=CN2 NC1CNCC=CC2=NC(=O)C1=C2 CC=CC12C3=C(C)OC1CC2OC3 NC12CC3C4=CC1CC2C1C(C4)C31 CC(=CC1C2(O)CCC1(O)C2)CN N=CNCCc1cc(=N)cc(N)[nH]1 CN1C2CC3N4C(C=O)CC31CC24 C=CC12OC3=COC1C1(C)CC2C31 N#CC1OC2ONC3=NCC1C32O OCC1NN=CC1=CC1CNC=N1 CC=C1C(NO)=Cc2c(Cl)csc21 CNNC1=CC(=N)NC2(C1)CC2O CC(C)=C1OC2CN=CC2=C1NO C=CN1C=NC=CC(CC(N)=O)=N1 C1=CC2CCN3CCC4NC1CC243 CCC1N=CC(=CNO)CC1(C)C CC1=CCOC2=NC(=N)C(C#C1)N2 C=CC1C(Cc2cc(=N)o[nH]2)N1C CC1=CC23COC(C(=C1)C2)C3=NN CC1(C)CC=C2C(N)=NNC(=O)C21 COC1CNN=C2ONC(O)=C21 CNC1CCN2C=NOC(=O)N2C1 C#CC(CO)C(C=CNO)=NC Cc1coc(N=Nc2cnsc2)n1 CN1C2C3=CC1(CO3)c1cnoc12 NC12C3=CC=CCN3C(=O)C1C2O CC12C3=NN=CC4(C3)NCC1C42N C1N=C(N2CC2)NOC2CON=C12 O=C1CC2OC3ON=C4CC2C13O4 CC12CC1N=CC2=C(NN)C1CO1 C=C1NC2=NC(=NCCO1)CON2 C=CC12C3=NN(C)C1CC2CC3O O=C1NC=CC1N=CC1=CNOC1 COC12C(=NN)C(=NN)OC1C2C O=C1CC23CCC4=CC2CC1C43O CC12C3NC(=S)NN1C2CC3=O CC=Cc1cn2c(c1Cl)C(N)=CC2 CN(CC=O)c1s[nH]c2nncc1-2 C=NNC(=O)C1=CNC=CN1C=O CC1C2=CC(N)C13C=C(CO)C2C3 CC1=C2C=NCC23CNC3CON1 CC12C=CC(=C1)CC=CCCC2 NC1=C2C(CO)=NN=CN=C2OC1 C=C1NC(C=C(N)CN)=NNC1C N#CC#CC1=C2NC(=N)N=C2CN1 CC1(C2CC=C(NC(N)=S)O2)CC1 N=c1cnoc(N2C3C=CCC32)n1 CC(NC=NC=NO)C(C)(O)C#N CC1=CC2=NC=NN(O)C2=NC1 O=CC1=C2C=CC3(O)C(=O)C(O1)C23 C#CC(=NN)NC(C=NN)=CC=C CC1=CC2(C)N(C=CS2(=O)=O)C1=O O=CC1N2C3CC14CCOC(O4)C32 C1=CC23OCCC14CCC2CNC43 C=C1OC(=NO)C=C(C)N=C1CN CC1(O)C=C2OC3(CCN4C2C43)C1 C1=NN=Cc2[nH]cc3c2CCC3N1 CC(C)(C)CCc1[nH]nnc1NN NC1C2C=C3COC(CNC=N2)C31 OC1CC2=NC=NN=CCC1ON2 CC1=NOC2(C3=COC4CC34)CC12 C=CN(N)C(CCC(C)(C)C)=NN CC1=C2C(=N)N3CCCN3C2CO1 CNC12C=CC3=CC4=COC1C4C32 CC1(CO)N=NC2=C(NN)COC21 NC1C2OC(=NO)C(S(N)(=O)=O)C12 NC1=NC2C=CC3(O)C1C3S2(=O)=O C1=CC2=COC3OCCCC(=C23)C1 N#Cc1[nH]nc2c1C(=N)C1CN21 CC12C3CNC14CC1(N)CC4C3C12 NC12CNCC3CC4=CC1C2C3C4 C=C1C(N)=NCCN2C1C2C(=O)O C=CCC12C=C3C(=NCC3(C)C1)N2 COn1ncc(C=O)c2cnnc1-2 CC1=NC2=NCCC3C(C)N3N2O1 C1=C2CC3OCOC4(C1)CC3NC24 OC=C(O)c1cc(C2CC2O)cs1 O=c1sn(N2CC2)nc1N1CCC1 OC12C=C3C4CC1C(N4)C1C3C12 C=C(N=C1CNC=N1)C(O)CC CC1C=CC2=C(C#N)NC=NN2C1 NC1=NN=COC2CC1(O)S2(=O)=O C1=CC2NC=NOC3CC(=C1)C2O3 NN=C(CC12C=CC(N1)C2O)NO N=c1cc(C=O)[nH]c2c1OC2C=O C=C(OC)C(O)=Cc1ccsc1 OCC1=NC=CCc2nc(no2)N1 C1=NN=CC2=COC3CC2C3CO1 OC12C3NC4CC5C(CC4NC31)C52 CNC1(C2=CN=CON=C2)CNC1 CNNC(CC#N)=C1C=NNC1=O O=C1C2C(O)C3=CC14CCN2C4C3 C=CC1C=C(CC)C(=CNN)C=N1 C#CC1(CO)CC12C(=O)ON=C2N CC12CC(CN)OC3=C1CC(C3)N2 CC12CCC3=C1OC1C2C(O)C31O CNC(=NNC1CCC2OC12)NO CC1=NC2=NC(C)C(=N)N2C(N)=C1 CN1CCCC#CC2N=C1C1OC21 NCC1=NC2C=CC3(CC=CN13)C2 CC(O)=Cc1c(N)nn(C)c1CO NC1CC2=CC3C4C=CC2C1N43 C=C1C=NC(=O)C(C(N)CO)=CO1 NCC1(C2=NCC=CC3CN23)CN1 CC(C)(NC(=N)N=CN)C(=O)C#N N#CC12C=C3CC(CO)(CC3=C1)O2 CC1=CC2(C3CNC3=O)OCC1O2 O=C1CN=C(c2[nH]nc3c2OC3)N1 CC12C(=O)CC3(CC1N=C3N)C2O C1=NNC2CC2CC2=CC3C(C2)N13 CCC(=O)C1=CNC(=CC(N)=O)N1 CN(N)C(=O)C1CN=CC=CNO1 C1=Nn2ncc3c2CNC3CCN1 C=CC12C3OC4C5OC3C1OC5C42 N=c1c(Cl)c(O)c(C=CO)cn1O C=CC12CC3C(=O)C4=CC1NC4C32 C#CC1=NC(NO)=NN(C=O)C1=C NC12CC1C1NC13C2NNS3(=O)=O NCc1c[nH]c(N=O)c1CN1CC1 CC1=C2COC=NOCC3C1CC23 CC12CCN=CC=C(NN)CC1N2 CC1=NN2OC3CC(C)C3N=C2S1 C=CCN1CC2OC2C(C=CN)=N1 CC1C2C3=CC(O)C14CN2CC34 CC1=C2COCC(C)CCC(=C1)C2 C#CCN1C=C(C(N)=O)N(O)C=N1 CN1OC(=O)ON(CC2CC2)C1=S N=C(C#CC1(O)C2C=NOC21)NO CCC=C1OC=NC(OC)=CC1=O O=C1CC2C3=CC4(C=CC3N4)CC12 NN1CC#CCCC2CCC1=N2 OC1CC2(COCC#CC=CO2)C1 CN=CN1C=C2C=NC(N)=C2C1=O CC1=C(C(C)O)N(C)C2C=NN=C12 CC12C(O)C3(CO)C4CN3C1C42N CN1C2=NC3C1C1C2CCC31C CN=C1C(=O)CC(=O)NNC=C1C C1=C2OCC3(C4CO4)NCC(O1)C23 OCC1N2C=NOC3OC4CC4C312 CC1=NCC23C=C(N1)C(C=CO2)O3 CC12N=C3NC1C1C=C3OC2C1=O CC1=NOCC2C3CC(C#C1)N2C3 CC1(C)N=CC(C2CN2)=C1NO CC1NCC2(c3cnc(N)o3)NC12 C1=C2CC3C4NCCN(C1)C(C2)C34 C1=C2CC3COCC(C1)OCC2O3 C1=C2COCCC3OCC(=C23)OC1 COC1=C(N)C(=CNO)C=CC1=O C1#CCC2=NCCOC2=CNOC1 O=C1CCC23CC2C2CCC3(C2)N1 NC1CC2C3N2C2C1C1OC2C13O OC1C2N(C3CC3)N=C3CCCC312 C=C1OC2=C3C1N=CNC3C1CC21 CC1(O)C#CCOC(=O)C(N)=NC1 CNN=CC=C1N=CC(C=O)=CO1 CC12C3OC4OC=CC41OCC32N N#Cc1ccc(C=C(O)C2CC2)o1 CC1=CC2C3C=C1C1CN2C3C1N C=C1CC2C3C1C1=CC2(N)C3(C)O1 C#CC12CNC13CON=C3C=C2N CC1OC2C3(C)NC1C21COC3O1 CC1=CN2CC(C)OC2=CC(=N)N1 CC1=NC2=C3C=COC3OC2=NN1 CC1(N)CC2C3C4=CC2(CC4)NC31 CC12ONC(NO)=NC1CC2O C=CC1C2=NCC3(CCC1C3=O)N2 C=CC(CN)C1=CNC=CNC1=O NC1=C2OC=CN=C2NCC2CC12 C=C1CCC(CC(N)=NC)C(=O)N1 C1ON=C2OC13CC1C2C1C31CC1 CC(C=C(N)CN1CC(O)C1)=NN O=S1(=O)C2=NCC1CC=CCNN2 C1=C2CCOC3C4OCC3(CC24)O1 c1nc2[nH]c1CC1(CC1)NCCO2 CC1=NC2=CCC(CNC(=O)N1)O2 N=C1NOC23COC=C(C1C2)C3N C=CCNNC(C=NN)=NC(=C)C C1=CC2Cc3noc(c32)CCCC1 CC(N)=NC12COC(C)(C1=O)C2C NC1=NN=C2C=CC(C(=O)O)NC12 CNC1C=CN2C(=N)C3(C=C12)CN3 C=C1CON=C2C1=NSN2C NC(N)=CC1=NC(=CC=O)OC=N1 N=C1CNC(C=O)CC2NNC=C12 NN1C=NC23CC12C1C2CCC3N21 OCCN=C1CNN2CCOC2=N1 CC1C2ON=C3C4OC4(C)C1(N)C32 C#CC1CC2C3=C(CNC3=O)NC12 CN=C1C=C2CN3CC(C3)NC2=N1 O=c1s[nH]c2c1C=C(CO)OC=N2 C=C1C=C2N=C(N)C(O)(C=O)C2O1 Oc1coc(C2=CC=NOC=N2)n1 Cc1cc(C2=CNOC2)c(CO)o1 C=CC1=CC2=C3C1CCC3(C)NC2 CC=C1CCNNC(C2(C)CC2)=N1 CC1(C)CC2(C)NNC=NC2=NN1 O=CC(C=O)c1c[nH]c(N=O)c1 CC12CC3OC=C4OCC3(C1)C4C2 CN1N=CON=CC2=CN=C1C2O O=C1C2CC3NCC4(CN4)C13CO2 CC1=COC2=CCOC3OCC1=C23 O=C1OCC(C23C=CC(CC2)N3)O1 C=C1CCc2cn(c(=N)o2)N=CO1 C1=CC2=NNCC=NNCC(=C2)N1 OC1C2C3=COC1(O3)C1=CC=CC12 N=CC1=CNOC2(CC2)C1CC=O O=C1C2C3CC14NC(=S)NC=C4C32 CC=C1CN=CC(=CNN2CC2)C1 C=C1C=CCCN2CCC(=N2)N1O CN=CC=C(C=C(C)C(C)O)NN N=c1c(C=CO)coc2nncn12 CNC1=NC(=N)N2CC12C(=O)OC NCC1=NNC2=NOC(CC=C1)O2 NCCONC(=S)NC1=NC=CC1 NN=C1C2C3=CCOC34CC2OC14 CCNC12COC3C4C=C1CN4C32 C=C1C2C3C(=C)C1(NC)C(=C)C23 C=C1C(CO)OC2C(=O)C1N=C2N OC1C2CC(C2)C1N=c1nn[nH]s1 COC1=C2C3OC4OC3CC24NC1 O=c1cc2[nH]n1CCOCC(O)=C2 CN1N=C2NNC3C(N)CCC1C23 CC1=NC23C=NOC(CN=C2N1)C3 C=C1NC(C=CN)=NNC1C O=CC12CN=CC1=C(C1CO1)NN2 ON1CCCC2=CC3(CNC3)N=C21 CNC12C3=NOC4(CC1COC42)O3 CC#CCNC1=CC(NC=N)=NC1 NC(CCCO)=NN=COCC=O CC1=C2CC3C4C1C1C2OCC1N34 C=C1CNC23CC2(C)N2CCC13C2 C1=CC2(CCN2)c2c3c(nn21)OC3 CC(=O)c1nc(C=CN=CN)cs1 C=CN=C1COC=CC(NNC)=N1 OC1C#CC2C3CN2CC(CC1)O3 NC12C3C=CCC14CC3C2N1CC14 CC1CN2C(=NC3C(C=NN)C32)N1 C1=C2OCOC3C(OCCCO1)C23 CNCC1NN=C2ONC(OC)=C21 NNC=Cc1scc2c1OCON2 COC=C1C=NC(=N)C=C(C#N)O1 CC1C2CC2CN1N=c1snns1 CC1=C(CC=NO)C(=N)C(=O)N1 CC1=CC2C3COC4CC2(C)NC143 CC1=CC(O)COC2=CC(OC2)O1 CC1CC2C=NOCCN(C)C1=N2 NCC1CONC1=C1C=NC(=O)N1 N=c1ocnc(=O)c(Cl)c1CCN CC1Cc2c(Cl)c3c(n2O1)CC=C3 C=C1N=C(NN)C2CC1CC2=NN N=CN(N)CCCC1CCN1C=N CCOC1=CC(C=CNN)=NCC1 C1=CC23COC1C=C(C=NO2)O3 CC(N)=C1C2(C)CCC2OS1(=O)=O C=C1N=C2COCOC=CC1=NN2 CCC(NC)=C1N=CN=C1NO NNC1=NC2=NC3CCN(C3)C2C1 CC1CC23C(=NNC12)CC1C(C)N13 O=C(CO)C1C2C3N=CN=C3NN12 NC12C=CC3=NNC4C(C1)NCC342 O=CC1=NC23C4CC4NC2C3ON1 C=C1NC2=NC1CNCC=CN2O ONC1=NNc2cccc(Cl)c2N1 CC1=CC2C3(C)NC1C21CCC3N1 CC1N=CC(C#CC2CO2)=C1NO CC1=CC2=NNCC(O)CCN1O2 CCCC12C3C4C(CN31)C4(N)C2O NCC12CC34CN=C1NC3CC2C4 CC1CC23CNCC24C(C=CO3)N14 CNc1nc2c([nH]1)CCC(O)=C2 N#Cc1cc(O)c(=N)c(Cl)cc1N CC(C)=CC=CC1=CNC(=N)C1=N C=C1C=CC2C1N2C(=O)C(N)=NN C=C1C2C3C2C2C1C3N2C=NO CC1OC23CC(CO2)N2CC1(N)C23 C=COC1CC1C(N)=NCC(N)=O C=CNC(CC(C=C)NC=O)=NN CNC(=N)C1=CNOC1C(=O)OC C=C(N)c1oc2c(c1O)CCC2 C1=CC2C3CC=C4CN=C(N1)C4C23 Cc1cc2n(c1)NC13CC1ON=C23 C=C(CO)C(=CN)C(C=CN)=NO CC(N)C1=NCC23C4CC(O4)C2N13 Cc1scc2c1CN=CC=C2NO CC1Nc2cn3c(c21)OCC=N3 N=C1N=C2C=CCNC(=O)CC1=N2 NC1=NOC2(C=O)C(CC=NO)C12 OC12C3C=NOC14CC1CC4N3C12 C=CC(=CC(=O)C(=C)N=CN)NC CC1(C)CC=CC(=N)N1NC=NN Cc1cc2c([nH]1)COC=CCN=N2 C=CNc1nn(CCC=O)cc1Cl NC1=NC(=NCC(=O)O)NCC=C1 NC12C3CC4OC(CC=CO3)C1C42 O=Cc1snc2c1C1(C=CC=C1)N2 CC1Cc2ncc(cn2)NC=NO1 CNCC1NC2=NC3CC1C1C2C31 Cc1[nH]nc(CO)c1C=CN1CC1 C=C1C2COC13COC1C(O)C13N2 CC12CC3C1OCC1=C2OCC13N NC(=O)C=CNC=C1CON=CN1 CC#CC1CC1N=C(C)C=CNO CC1=NOc2c(O)cc(CN)n2N1 OCC1CN=C(N2C=COC=N2)O1 C=C1N=C(CCO)N=C(N)CC1=O O=C1NOCC2=NN=C(C2)N2CC12 CC(C)C=C1NC=NOS(=O)(=O)O1 CC12CC1NC13CC1C(N)C1NC123 CCNC1=CNC2=NOC3CC3N12 CN=C1CCC2=C1C(C)N(C)N2 Nc1sc2cc1C1OC1C=NN=C2 O=CC(O)C1=NC(CO)=CC=NO1 C=CC(C)N(O)c1noc(C)c1O NCC=Cc1c(=O)[nH]n2sccc12 CNc1ncc(C=C(C)O)n1O CC1=CCCc2[nH]c(N=N)cc2O1 NC1COCC2CC3=NN=C1C3O2 CN=c1nnn(C2C(C)CC2C)[nH]1 C1=C2CC3CC4NC1CC4(CO2)O3 NC1C#CC2CC(C2)c2ccc1[nH]2 CC1C#CC(=O)NC2CC3C(C2)N13 CC#CC1CC(=O)N=C2N=NON21 C#CC1C2C3=CC4CC4N=C3NN12 CC1C2C3=CC1(C)CC3(O)C1CC21 C=Cc1c(O)c[nH]c1C=CO N=C1NCC#CCN=CC=C1NO CC1C=C2CCCOC3CC1C2O3 CCC1CC12C=C1OC=CN1C2=N CC1C23CN4CC4C12N(N)C=NN3 C=C(C(N)=NN)C1CCCNC1=O C=C1C2(C)C3C=C(C)C(C32)S1(=O)=O COC1CN=NC=CNOCOC1 CC1=C(N)OCOC(N)=C(C)C1=O CC1CC(=CO)c2c(O)c[nH]c2C1 CCOC=Cc1cc(N=O)c(C)[nH]1 CC(=O)C=NOc1n[nH]cc1Cl Cc1n[nH]c2c1C1C2C(C)C2CN21 N=C1C=NC(C2(O)CCC(=O)C2)=N1 CCC(O)=C(C)c1coc(=N)n1O N=C1NC2C3OC14C(=O)OC3=CC24 CC1(N)C2=CC3C4CC2=NOC4C31 NC1=CC(ON=CCO)=NOC1 N=CC1=CNOCC2(C=O)CNC12 CC1COC2=CC3CC2N3CCN1 CC(N)C1(C2C3C(O)C=NN32)CC1 C#CC=NNC1=CC(CCC)=NC1 CN=NC(C)=CNN1CCCC1C C=C(C)Nc1cc(CC)c(O)cn1 C#CC1(C#C)CN=C2C1=NNN2N C=CC1=CN=CON(C=CC)C1=N NN1C=NOCC=C2OCC3C2C31 OC1CCC2CC1=CC#CCCN2 CCc1sncc1C=C(O)CCO C=C(C)C1=NC(=N)NC(=O)N(C)O1 CC1C#CCC(N)=CC(NO)=NO1 OCC12CCC3(C=C(C1)C1OC13)O2 CC1CN1N=c1sn2c(c1O)CC2 C=CC1(C)C=C2OC3OC1C1C2C31 CNc1ncn2c1C1(C=NN=C1)C2 CC1=NC(CO)=C(C)C1=CO N=C1CC=Cc2nn(oc2=O)C=N1 CC12COC=C3C(=NNC3C1)CO2 N#CC1OC2CC13CC=CN=C2N3 C=CN1C=CC23NC2C(CN)N=C13 COc1ccsc1C=C(O)CO NC12C3=NOC1(CO)CC2C(=O)O3 CN1Oc2cc(N)[nH]c2N=C1C=O CNN=Cc1c(=O)on2sccc12 COC(C=C(C)NC=O)(CN)OC NC1=NC2CC13OC2C(=O)C3=NO NC1=NOCC23OCC(=O)C2C13O COCC(N)=C1C(C)=CN=C1NO N=C1OCC=C2OC(C=NN)=CN12 C=CC12CN=C3NCC(N)=C3C1C2 CC1=Nc2cc(=O)n(N)n2OC=C1 CN=C1N=C2CCC(NC=O)C2=N1 N=CN=C(N)C1OC(CO)C1=O C1=NCCCNCC2=CC3C(C2)N13 ON1C=CC2CC2CC2CN=C1C2 NN=CCC12CN1NC1=NC=CC12 C#CC1C2C(=C)N=C3NCCNC312 C=C1C=CCC(NN2CC(N)C2)=N1 N=CN1CC2CC3(OC=CO3)C2O1 C#CC=NOC1=NC(=O)C(N)=C1N C1#CC2C3C=C(OC=NNC1)C2N3 NCCc1cn2[nH][nH]c(=O)c2c1Cl C=C1C2=NNC3C(C)C(N)(C1C)C23 O=C1CC2CN2C2=C1OCC1CN21 COC(C)(C)C1=CNOCCN=N1 N=C1NC23C=NN=C2C1C(C=O)=C3 CC1=CNC2=NN=C(C#CC1)NO2 C=CC12CC1N=C1C=C(C=O)SN12 NC(=NCC(C=O)N1CC1)C(=O)O N=C1C=CC(N)C2(N)C=CN=C2N1 O=CC12CC1C1=NNC3C(O)C2C13 N=CC1=CNOC2C3COC(=O)C132 C=C1CC2C3(N)C(C)=C(C)C2(O)C13 OCC1C2CC3=COCC2C2C3C12 COc1c(NOC(C)=O)n[nH]c1C CC1=CCN(O)c2nccc(Cl)c21 CCC1=C(N)C#CC(C)CON=C1 NC(=NC1CC1O)C(=O)C#CC=O O=CC1CC=NNc2cc([nH]n2)O1 C=CC1=CNC(N)=C2C1=NCC2O OC12CC3NC14CN=CNC4=CC32 CNC1=C(CC2CC2)C(NN)=NC1 NC=C(CCc1cnn[nH]1)C(=O)O NCC12CCN=CC1=CNN=CN2 CONC(=NC1C=COC=C1)NN C=C1CN2C(CO1)C(C)=CN2C=N OC1CC12C1OC=CC23COC1O3 CN=CC1=C(CCC#N)NN(C)C1 CC1C2C3NC4C1N2C1(CC1)C34O N=C1C=CNOC2CC2(C=O)C1 CC(N)=C1c2[nH]c(=N)[nH]c2C2NC12 Cc1cc2c([nH]1)N=NCC(C)CO2 CNC1=NC=NN=C(C=CN)CC1 C=C1C=NC(=NC=O)N=C(C#N)O1 CON=C1C=C2C=NC=C2C(C)=N1 NC1C2Cn3oc(=NO)c(O)c3C12 CN=C1N(C)C2=CCN3CC1(O)C23 CC(C#N)C1=NC=NOC=N1 CC1=C2OC3(C1)CC2(N)C(N)CO3 C#CC1C2CON=C3N=CON3N12 NC12CC3=CC4CC(NC1C=C3)C42 CNc1c(N=O)[nH]c(C)c1CC#N C=CC1CC2=NC=CN(O)C2=N1 CN1CC2CN2CCN2CCC1=N2 CNC12CC3C=CC(=CC1N)C32O CC1=CC23CC4=CCN2CC1C3C4 N=c1c2n[nH]n1CC=CCCC2N NC1=NNC(=O)C(O)C2NC2CC1 N=c1ncoc(=O)n2cc(N)cc12 CNN=CC1=C2C=NCC2ON1 C=C1OC23CC4CC1C2C1CC3N41 CN=C1N(O)C2=CC13CC1CN3C21 CC(C=NN)=CC(C)(C)C(=N)NN Cc1nonc1NOCC1(C)CN1 CC12C#CC=NN3CC3C(O1)C2=O C=C1C2COC=CC3NN=C(N2)C13 C#CC(C=C1NN=CCN1C)=NN O=CCNNc1cc2cc[nH]n2c1 COC1=CN(C)C=CN(C)S1(=O)=O CC1=C2N(OC1)C(=N)C1C(O)C21O CC12CC(CN)C3C4=CC1N(C4)C32 COC1C2C(N)=NNC1(C=O)C2C CC1OC1C1=NOc2ocnc2N1 CC1=CC2CCC(=N2)N2CC2CC1 C=C1CNC(N)=C2CC(=N)NC2=N1 CC1=C(C#N)NC=C(C#N)N=C1 CC1(CO)C2C=C3C(=NCC31O)N2 CNC1=NC(C)=C(OCOC)C1O O=C1C2CC3(O)C(NNC=N2)C13 COCC1=NOC(C(=N)N)=NC=C1 CON(C)C(=S)N1C=CN=C(C)N1 C#CCC1=NC(OC)=CNC(=S)N1 CN=NC1=C(COC(C)C)NNC1 C=C1CN2C3C=C4OC3C2C4(C)O1 N=C1OS(=O)(=O)Cc2c(Cl)cnn21 CC(=O)C1=C(NN=CN)NCC=C1 N=C1NN=C2C=CCC3=CCC1N32 OC1CC2CC(CC#CC13CO3)C2 CC12C=CN=C1N=C(NN)C=C2N O=C1COC2=CCC34NC3COC124 C=CC1CN=NC=C(NN)C1(C)O CC1C2C=C3CN1C1C(CNC2)C31 CC1=CN2CCCCC2=CNC1=O OC12CCCC1C2N=c1nno[nH]1 CCN1C(C)C12C=CN=C(N)C2=O CCN=C1N=CC=CC2=CNNC21 OCC12CC3CC4=CC3(CN1)C2O4 CC12CN=C3CC4CCN4N3C1C2 O=C1C=C2C3NC4C3NC=NC24C1 N=CC=C1NNC(=O)C12CC(N)C2 COC(C)C1=C(CO)N=NC1=CO CC1C(C)C1(N)C=C1C=NC(=N)N1 C=CC(COC1=NCC(=C)N1)=NN N=C1NN=C2OC3(C=C12)CC3C=O CC1=CNOC2CC(CO)CN=C12 CC1=CC23C(C)C4C(C2O1)N4C3C C=C(CC(=C)OC(C)C=O)N=CN C=C1C2=NOC3(C)C4OC(C14)C23N CN1CC(C23CCN(C=O)N2C3)C1 CC12OC3CC14CC3C2(N)C(=O)N4 C=C1OC2CC34OCC(O3)C1C4O2 C=CC1=NN=C2NC(=C)N=CNC12 C=NNC1=NC=CN(C)C(C)=C1 CNNC=NC1=C(OC)C=CC1 N=C1C=NN=C2OC(CN1)C1OC21 C#CC1=NC23CC(=C)CC2(N)C3N1 C#CCC12CC3=NCC(=C)N3N1C2 C=NN1C2CNC(NC)=C(C#N)C21 CN1C(=N)COc2c1ocnc2=N O=S1(=O)CC2OCC3(CCC=C23)N1 CC1=CC(N)=NCC(=O)C2C(C)C12 CC1=CCCN2CC=CNC(=S)N12 CC1=C2C=NCC2CC(=O)NN1 CN=C1C(N)=NCC(=O)C=CN1O O=CC12OC3(C=O)C4NC3C1NC42 CCC1C2C3=NC(=N)N=C3C1N2C CNC(C)C1N=NC(C)=C1NOC CCC1=NC2(C#N)C(C)=CN=C2N1 CC12C=CC(=NC=CC#CC1N)N2 NC(=O)C1C=C2CONC=C2C=N1 C=C1C2=CC3CC4(O)C2C4N3C1C CC1=CC2=CC3CC2C2C1NC32C NC1CCN=CN=C2CCCC1N2 C1=C2CCCNCCC(=CO2)OC1 NCC1=NC23C=CCC2=CN=C3N1 N#CC1=C2N=CN=C2OC(=O)CC1 CN1NCCC#CC2NN=C1C2N O=C1C2=CC3(C=C2)CC12CCC3C2 N=Nc1[nH]cnc1C1CC1C1CN1 CCNN1C(=N)S(=O)(=O)C(C)=C1N C#CCCN1NC(=N)OC=NC1=O CN1N=CC2C(N)=NCC2C1C=O CC1(C=O)C=CC(N)=NN1 CC12C3=NOCC1NCC2CC=C3 OCC1C2=CC=NNCCC1CN2 N#CC12C=CC3=CCN1C1CC2C31 C1=C2OCON=C2C(=NN2CC2)N1 C1=CC2CC(=C1)C=NNC1CC1O2 O=Nc1cc2c([nH]1)C1C=CC=C1O2 C=CCC1=CN2OC(=C)CN=C2S1 C=CC1=CON2OC3CC3ON=C12 CC1(N)C23CC(=O)NC12CC(=O)N3 CC1CNN=C2C=C(N)C3N(C)C213 C=C1C(N)=NOCC2C(=O)N(N)C12 C=C1CC2C3ON=C4CCC1(O3)C42 NN=CC1CC2(CC2)CN(N)C1=O CC=CC12OCC3(CO1)OCOC32 CC=C1C2N=C(N)C3C2C3S1(=O)=O C=C1CC=Nn2nc(sc2=O)CO1 CC1=CN=CON=C1C(C)C(N)=O Clc1cc2[nH]c1C1OC1CCCC2 C=C1CC2C3=CC1(OC=C3)C2(C)O CC1=C2NCC(C=O)=CC2ON=C1 N#Cc1nnc(C2=CCNC=N2)o1 CCNC1C(=N)NNC1=CC=NC C#CC1CC(=O)C(NOC2CC2)=N1 N=c1c2non1OCCC#CC2N CC1=NC(NCC2CC2)=NC=NO1 N=c1c2nsn1CCCCCC2=O N=Nc1c[nH]c2c1OC1CC(C2)C1 O=C1N=C2ON=CCCN2N2CC12 C=C(C)C(C=NC)=CNN=CNO NC12CC34CCOC1C(O3)C2CC4 CCC1CN(C2=CC=NS2(=O)=O)C1 N=C1C#CC#CC2C(O)C(N1)C2O C=CC1=C(C=NN)C(=CC)OC=N1 NC1=NCC=C2NC(=O)C(N)C2=C1 CC1NC2C3CCC24NC13CC4=O O=C1C=C2CC3CC=C2C2C1NC32 O=C1CC2C3C4=C(OCO4)C1N23 CC1NC2C3OC34COCC4C12O CCN1OCC2(C=CNC1=S)CC2 C=CC12CC(C1)N(N)C(C=CN)=N2 N=C1NC(C=O)=CNC=C1NC=O N=C(C=C1CN2CC=CC2=N1)NN C1=NOC2C3CC1(CN3)C21CCO1 CCC12NN=C3C=CC(C1C=O)C32 CC(N)=NC1=CCC(C)C1=CC=O CC1=NC2=CC3(O)C(C=O)C3C2N1 CC1CC=C2CN1N=CON=CO2 C=CC12C=C3C=CCC(C)(O1)C3=C2 C#CC1NCC12N1CC3C(C1)C32O CNN=Cc1cccc(=N)c(N)n1 CC1=CCN=Nc2c[nH]c(C)c2O1 C#CC1N2N=C(C)C3=COC(C)C312 NN1CCC2(C#CCNC1=O)CO2 CC#CC(N)=NC(C#N)C(=O)OC C#CC12CC3CN=C(NC1=O)C32 OC1C#CCN(O)C2=NOC(C1)O2 OC12CC3COC1ON=C2C=NO3 CC=CC1(C(C(N)=O)N2CC2)CC1 OC1CC23N=C4NC2C1CC3O4 CN1CC2=CC1C1CC1CCCC2 Cc1cc(N)oc1NN=C(N)C=O CC1COC2(CC3N=CN(N)C32)O1 CC1=CC(=O)C(=CNN2CC2)N=N1 COCC12C3OC4C(C)(CC41N)C32 C=NOC1=NN=CC2=CCOC2=N1 CC=CC1CON=C2N=NON2C1 O=CC1=NC2=NN=CC#CCC1=N2 CN=c1[nH]c(N=CN)c(CC=O)s1 C1=C(C2CCN2)OC(CN2CC2)O1 CC1CC23N=CN4CC42C1CC3N COC1=CCN2C(=N)CC(=O)N12 CCC1C(C)OC2C3C4OC12OC43 CCc1[nH]nnc1NN1C(C)C1C C=CC=C(N)c1c[nH]nc1C(C)O N=C1CON2C(=NC=N1)CC1CC12 C=C1CN=C2N=C(N)OC(CO)=C12 NN1C2CC2(C=NO)OCS1(=O)=O C=C1CNC2=C1C(=O)C1C(C)N21 C=C1C(N)=NC(C(N)=O)=C1CCC CN(N)C(=O)C=C1C=CC=NC1=N C=C1CC(=O)N(O)C2=CC(N)=NC12 NC1=NC(=NO)N2C(C=O)=CCC12 NNC=NC1=COCCC1C1CN1 NC1C2OC34OCCC5C3N5C2C14 N#CC(N)=C1CNC=C(CO)C1=O C#CC1C2C3=C(CN12)OC=CO3 CC12NN=C3OC(CC31)C2=NN CCNC(C(=O)N1CC1)=C(N)C=O CCC1=C2COC(C#N)=C2N=CO1 C#CC1C2C=CC3C=NN4CC34C12 NC1C2=CC3OC14OCC3C4NC2 CC(N)=CC(CC1=NCCN1)=NN CC12CC=C3C4OC(=O)C4C(O1)C32 NC1CC2=NC3C4C=CC13CC4N2 CC1CN(n2ccc3nocc32)C1 CCN1CC=NOC(NC(C)C)=N1 O=CNC(=CO)c1cc(C=O)co1 C=CC12ON=CC34CC1N(C3)C2C4 C=CCC(C=O)=C1NN=CN1N=C CC1=CCN=C2C=NN(O)N2C1 CCC1=NC(C)=NN(CC)C(=O)O1 CC(C#CCC(C)=NO)=CC1CC1 CC1(N)C=C2C3=NNC4C(O3)C2C41 C=NNC(=CC=NOCCC)NC N=CC1=C(C=O)NOC(=O)C1 CC1CC2(CC3(CO3)C3COC32)O1 CC12NC3CC1NC=NN1CC1C32 CC1NC1c1cc[nH]c1N=NC=N O=CS(=O)(=O)c1[nH]nc2c1CON2 CC12CC3(O)CC(C#CCC1N2)C3 CC12C=CCC3COC(=C31)C(=N)N2 NNC1=NN=CC2CC3C(C2)N3C1 NCC1C2COC34C=CC(=C3)C1C24 N#CC1=COC(C(C#N)=C(N)N)O1 CCC1=C(CO)C23CC=C(C2)C1N3 CC12CCOC34OCC(=CC13)C4C2 COC=CC1=NNC=CC(CO)=N1 N=C1C=C2OC(=O)ON=CCC2=N1 CN1C2C3CC14CC2(C=O)CC4N3 CC1N2C(=N)OC3OC=C(C#N)C312 C#CC1C2C3C2C2N(CC)C3C12N O=C1ON=C2C#CCCN=CN1O2 O=C1C2C=CC13CC(=CN=CN3)O2 C=COC(=O)C(N)(C=C)C(N)=NO O=C1CCCOC=C2C=CN1N=C2 CNN1C(=N)C2=NN(C)C3CC1C23 OC1CCC23ON=CC2(C2CO2)C13 C=C1CC2(C)C(=O)C13ON=C2NO3 O=C1C=NOCC(O)C2=CN1NC2 OCC1=CC23COC1C(=CCO2)O3 C=CN1NCC(=NC(=C)C)NC1=S COC=CC12C(N)=NNC1C2C=O CC1CNC(n2ccc(Cl)c2)=N1 NN=C(N)C12C=COCC1OC2=O C1=NNCC2C3NC(=NO1)COC23 CC12CN3C4C1C1CC4(C#N)C3C12 CCN1C2C=CC3CN4CC4(C)C321 C=CC12C3=CCN1C(CN)C2NC3 N=C1NC=CCOn2sc1cc2=O C=C1OCC#CC2C3CC2OC1O3 CCCC1=C(NOCC)CNC1=N CC(C)C1=CN2CC23C=NN=C13 CNc1cc(=N)c2c([nH]1)CCN2 C=C1CC=CC2=NNC(=O)C2=C1O C=NN=C1C(=C(C)N)CC=CN1N C=C1OC23CC=C4CC2OC1C43C CC12CC3=NN4CC4C3=CC(C1)O2 CC1=CC2C=CC3NC(C=C2)C13N CN=c1cc(O)[nH]c(S(N)(=O)=O)c1 CN1NC2C3(O)C=CC(N)C23C1=O Cn1c(C=CNO)cc2c1CC=C2 CC12C3OC1C(C3O)C1C(C=O)N12 NC=NC1(CN)CC1(N)CC(=O)O C=C1C(=O)N=C2CC3CCC3C=C12 C=CC1=NN(C=N)C(=C)N1CCN NC=NN=C1NCC(=CC=O)C1O C=C1C2=NN=CNN(C)CC1C=C2 C=C1N=C(N)C2(S(N)(=O)=O)C(N)C12 O=C1N=C2CCON=C2N1N1CC1 C1=NN=CN=C2NOCOCC2=C1 N=C1CC2=C3OC=CCC3N=C2N1 O=c1c(O)c2on1N=CCNCC2 NN=C1OC2=CC3C4CN3CC14C2 N=C1COCCONC=C1C=O CC1=C2C3OC3C(CO)C23NC3C1 CC1C2CC3CC14OC3C(N)C4N2 NC1c2coc(c2)NCC2CC1O2 Oc1c[nH]c2c1ON1C=CCC1=N2 C=CC1=NC(CC(=C)C)=NC=NO1 C#CC12CC3=CC1(N)C1NC3=NC12 COC1C2CC=C3N(C)C(=O)OC321 C#CC1=C2C=NCC2(O)CC=NN1 NC12C(CNC=O)=CC(C1O)C2O COC1=CNC(=CC(=N)N)N=C1 CC1=C2CCC3OC(C1CO)C23O CC#CC12CC13C=CCN3C(=S)N2 C=C1N2CC(CO)N=C2OC12CC2 O=C1CN=C2NCC3=C2C1N=CN3 C=C1C=NN=C2CNC(NC)=C2C1 CNC=NOCC(C)N=CNOC CC1NC12C1N=CNC2C(=O)C1=O C=C1CC2C=CCNN=CC(=N2)N1 C=C1CC(C)C(=O)C=CCC(N)=N1 N#CC(CN1N=CC2CC21)C(=N)N Cc1cc2nc(N)c(NN)cc2[nH]1 CC1C(C)(C)C2OC13ON=C2C3O CC1C2OC3=CC14C=CC2C4(O)C3 CC12C3C4OCC4N1CC1(CN1)C32 CC12CC=C3C(O)CC(C1CO)C32 CC1(C2=NC=NS2(=O)=O)OCC1O CC1C2CNc3ccc(s3)OC1C2 C1=NC23CCC=C2C(CC2NC23)N1 C=COC12OC=C3CCN(C1C)C32 CNNC1=NC=CC1(C)CNC=N NC1=NNCC(O)C=CC#CC1=O CNN1C(OC)=NCc2nocc21 C=CN=CNCC1=NC=CCN1 CCNC1=NC(=NC)c2cn[nH]c21 NC1C=C2C=NC(=O)C=NN2C1=O Cc1ncn2c1N=CC(C=O)=CO2 OC1C=CN2C=NCc3csc1c32 O=c1nnn(C23C=CCC2NC3)s1 CC1=CC2=CC(=CC=NNCC2)O1 CNc1[nH]c(CN)c(Cl)c(=N)c1Cl CON=c1cnoc(=N)cc1O NC1=NC2CNCC1(C=NO)C2=O O=NC1=CNNC2COC(C1)C2=O CC1(C)NN=C2NC(C#N)C(N)=C21 CC12NC1C13CC(O)C=C1CC2C3 CC(N)=NN(C)C1CC1(O)CC=O C#CCC1C(C)(CC)N(O)S1(=O)=O CN=C1CN2NCC=CC(N)C2=N1 CC1CC2OCC34N=CNC3C24O1 OCC12CC3=CCC(CO1)(C2)O3 N#CCC1CN2C1CC=CN2C=O N#CC1C2OC3CC4C2=CCN4C31 CC1ON=Cc2cc(N=O)[nH]c21 O=CC1C2C=C3C(=COCC31O)C2 C#CC1ON=C2SNC(COC)=C21 CC1C(N)=NC2C3C(=O)CCC3C12 CC1COC=C2CCN(C=N1)C2=N C#CC1=NC=NN(CCC)C=C1C C1=C2OC3OC2CC3NCCCC1 CC(C#N)N=Nc1cc(C#N)c[nH]1 CCC1OC1c1[nH]c(N)cc1N=N CC(=O)OCC1CC12N=CN=C2N NNC=NC12CCCCC1=COC2 C=CN1N=C2CNC=C2N(C)C1=O COC(N=C(C)NN)=C1C=CCC1 NC=NC(C=O)=CC=NO CN=CC(C#N)=C1CCCON1 OC12C(CC=CC13CN3)CC1OC12 CCOC1=CC(O)C2=NNC=NN12 OC=Cc1c(Cl)ccnc1CCO CC12COC(=O)C3=COC=CC31O2 CC1=COC23CCC4(C)C2CN4C13 C=NNc1c(C)cc(C)oc1=NN C=CN1ON=C2OC3(CC3)CN=C21 O=CC12C=C3CC(O)(CC3=NO1)C2 CC1=NC(NN2CC2C#N)=NC1=O NC1CC2=CC#CC(=O)OCC1O2 CC1C#CC#CC2C3CC(=C1)CN23 NC(=O)C1CC2CCN=C(N)C21N CN1CC=C2CC3C=C2C1(CN)C3 C=CC12C=CC34COC1(CCC32)O4 CC1(C=C2C=NN=C2N)CC1C=O Clc1c2nsc1OCC=CCON2 CC(C=NO)C1Oc2nn(N)cc21 C1=C2CNCC2NN=C(N2CC2)N1 O=C1N=COC1=C1CNCC2CC12 N=C(c1cnsc1O)N(N)C1CC1 O=C1CCOC=C2C=C(N1)C1CC21 CC1C=COC2CN=C(C2)N(C)O1 C=CCOC=CNC(C=CN)=NC C=C1C(=NN)OCC2C1C(=O)N2N C=CN1C=NN=Cn2cnc(c2)C1 COC1=NC=NN2C(=N)C(=O)C=C12 O=C1C=C2C=C1NC(=S)NC=CO2 CC1=CN=C2NOC(C=O)C(N)=C12 CN1CC23CC1C(=O)C2ON=C3N C=C(CC(C(C)N)N1CC1)C(N)=O N=C1C=CC(C23CCCC2N3)=N1 C=C1C=CCNCC2CN(C)C1=N2 CC=CNC1=NC(=NC)CNN=C1 N=C(N)C12NC=NC1CC=C2CN N#CCC=CC(N)=NCC(=O)NO C=CC1=CC2=CC(CC2)NCC=C1 NN1CCC23C=CC(O)(C=C2)C1=N3 CNC1=NC2(CNN1)CN1CC2C1 COC=C1OC=NC(=N)N=C1CN O=CC1NC1CC1=NC=CC=NO1 CC1=C(C)C(=NC=NN)S(=O)(=O)N1 CC12C3OC4ON=CCC3CN1C42 CCC12C3C4OC4CN1CCC32C CNC1=C(COC)c2c[nH]nc2C1 CN1C2COC(C=CC13CC3)OC2 CN1C(=N)C(C2=CCCC2)=NC1=O CC1(N)C=CN=C(N)C1S(=O)(=O)O NN=C1CC2OCCCNN=C1O2 C1=NNC2CCNC(CC3CN3)=C12 CN1NC=NC23CC=CC=CC2C13 N=CN=C1CN2C(=O)COC=C2N1 C#CC(=O)C1=CNC(=N)N=C(C)O1 C#CCC1NC23C=C(CC2N)C1C3 C=CNC(CC1OC1CCO)=NN CN1OS(=O)(=O)NC(C#N)=CC1=N CC1C=C2CC(=CO2)CC#CC1O C#CC(=NC(=CCO)CO)NN CN1NC2=C(CO)C(=O)OC2C1=O C=C1C(=N)NN=C(C2(C)CO2)N1O C#CC(N)=NN1C(C=O)C1C=NO CCN(C)N=CC1=CC(=N)C(=N)N1 CC1CCOC(N2C=CCC=N2)=N1 CCC12C3C(N)CC(CC1(C)C)N32 CCC12CC1C1C=C(C=O)N=C1N2 CC12CCC3=C1CC(C3)C21CCO1 CC12NC3CN=C(N)C1C2C3C=O CC1=CC(=O)C2(CC2N=CNO)N1 CC12OC=CC(O)C(N=C1N)C2=O C1OC2OC13CC1OC2C3C12CC2 C=COCOc1c(N=O)c[nH]c1C NC1=NC2=C(CCOC2C=O)C1O C=CC(O)(CC(N)=NOC)C(=O)O NCC12NC=NOC13C(O)CNC23 C=CC12C=C(C)C3C1(O)C=CC32O C=CC=CC1CC(C)(C=O)C(N)=N1 C=NNC(=CC=NC)C(=C)C(=O)O CC12C3COC1(C#N)C(=N)N=CN32 C=C1NC=CS(=O)(=O)N1CCCC CC=CN=C(C)N=C(N)C(=O)C#N CCc1c(C)c(C)cc2c1NOC2 CC12C=C3CC=C(CNCC1)C3O2 CNC(=NC1CC12CC=CO2)NC CC=CC(=N)N1Cc2[nH]oc(=N)c21 CC1C2CC3=NC(=NO)N=C3C1N2 CNC(C)CNC=NC1=COCO1 O=C1C2CC1c1sc(C=CO)cc12 N=C1N=C(N)C=CC1(O)C(=O)C=O CN(N=CN)C(C=O)(C=O)CC#N NC1=NN2C(CO)C2CC1CC=O CC1=CC=CC2NC2(C=O)C#CC1 C=C(N)c1ccc(C(C)N)[nH]c1=O N=C1N=C2COC=NNC=C2C1=O CCN=NC=C(NOC)C(C)=NO CC1=C2C=NNC13C1CNC3C2C1 CC1CC=CC=C2CC=C(O1)C2N CC12C=CC=C3CN(C1)C(CO)C32 CN=NC1=C(CCCC=O)NNC1 C=CC1NC1C1=C(C)NC(=N)C1=N C=NNc1occ(O)c1CNC=N CCN1C=CCC2(OC=CO2)C1=O NN=C1CCC2CC2CN1N CN1C2C=CC3CC4C(O)C4(O)C321 C=C1C(OC)=Nc2c1[nH]ncc2=N CC1=C2CCC3(C)CN4CC(C14)C23 CNC12C=CNC(C)=NC(C)(C1)C2 C=CN1N=CC23CC(CCN2)N=C13 CCN=C(CCC(N)=O)N=C(C)N Oc1occ(NC2C=NN=C2)c1O N=C1C=C(N)NC=C2C3CC3NN12 NC12COCCC3=NNC(C3)C1C2 C=CC1=C2OC(=O)C3CC1N1C2C31 NC1C=C2CC3OC2C1(O)C31CN1 C=NOCC(=C)c1cncc(O)n1 CN=C1C(=CO)C=NN1CC(C)=O C=C(N=CN)C1=CN(C(C)=O)OC1 COC=C1C2=NOC13CC(O)C2O3 C=CC(=O)C1=C(C)N=CC=CN1C C=CN=C(C=CC(C#N)C=C)NO C1OC1CC1=NC2=NC3CC3C2N1 CN=C1N=COC(=CCC2CC2)N1 C=CC12CC(N1)C(N)=C1CNN=C12 CNC=NNC1(CN)CC(OC)C1 CC12CC(O)C1N=NC=CNO2 C=CC12CC3OC1C1NC3=NC12C CC12CC34C=C(CC1C3)OC4O2 CC1C2(C)NCC3(C)C(=O)NOC132 NC1=NC=CCN(CC=O)C1CO C=CC1=CC2=CC3(N)C=C2C1(N)C3 CC(CCO)N=Cc1c[nH]nc1N C=C1CN=CC=C(NOC=O)CO1 CC12C=CC3C4C1=NNC1C4C1N32 CC12C=CC3(CC(C=O)=CC3O1)O2 CCNC(=NN=C(C=O)C=O)NC C=C(C(O)C#N)C1C(=O)ON=C1N C=NOC12CC=C3OC(CC31)C2=C N#CCC1=NC(C2CO2)=NC=NO1 C=C1N=CNN2C=CC(=N)NC=C12 N=CN1C(CN)=CCn2cncc21 NC12CC(O)(CCc3nonc31)C2 CC1C(O)C2C=C3CC1(CC3O)N2 C=CN1CC2C(C)C23C(C)=NN=C13 O=C1CC2C=C3C(=CCC34CC4)N12 C=C(OC=NO)C1=NC=CC=NO1 CNC=C(OC)C(CC(N)=O)=NO NC1C2=NCC1NC(=O)C#CCN2 CNC1C2C3=C(CC=C3)N(C=N)C12 C=C1COC2C=CCc3noc1c32 CC(=N)N1CC(C)C(OC(=N)N)O1 CC1CNC=NC(=NO)C1N1CC1 CC1NC2C=CC3(C)C=C2C1(O)C3 C=CC1N=C2CNNC=C2C1CN Nc1cc2c(=O)n(CC=O)[nH]n2c1 C1=NN=C2CC=C(C2)C2=COC1C2 CCC1(C2=CCc3nocc32)CC1 N=c1sc2nn1C(=O)C=CCCO2 CCC12OC(=O)C1N=C(N)C=C2N CC1NC=NC(=NO)C1CNC=O C=CC1C2C3=C(CC=C3)N(C=N)N12 C=C1CC(=C(N)NC=N)S(=O)(=O)O1 CC1=C2C=CC(O2)C(=O)CCCO1 NC1=NC2(CC1)C(O)C(=O)C2O CC1=NC(=N)NC=CC(N(C)C)=N1 NC1=NOCC1C(=O)NCCO N#CC1NC2(CN=C(N)C2O)C1=O CN=NC1=C2NS(=O)(=O)N=C2CC1 CC1CC23OC1C(=CC2(C)O)C3=O C=C1COC(=C2CNC=N2)C1NC C=C1CN=C2CCNNC(CC)=C12 C=CN=C1CNC(C(=C)C2CN2)=N1 NCC(C#CS(N)(=O)=O)CN CC(N)=C(NC(=O)C1CN1)C(N)=O C#CC1C2CC3N4CC3(O)C(N2)C14 C#CC=CCCn1[nH]c(=O)c(=O)o1 C#CC1CON=C2C=CN=NN2C1 NC12CC3CC4NC3(C3CO3)C1C42 C=CC1=Nc2c([nH]sc2=O)C=CO1 C#CC(O)=C1C(=O)OC(C)=C1CO C1=CC2C3NC1C21CC2CC3C1N2 C1=CC23CNC1CC21CC2C(N1)C23 N=CN=C(N)CC(=O)OC=CCO NC(=O)N(N=C1C=CC=N1)C1CC1 O=C1C=CC=CCC2=CN=CNN12 N=C1CC2=Cc3sc(N)nc3C2N1 CC=CN=C(N)C1C=CCC(=O)O1 CN(CC12CC1NCCN2)NC=O CC1(CN=c2sncn2N)CC1O O=C1N=CN2NC3(C=CC=C3)C=C12 C#CC1=NC=C(C2(C)CN2)C1=O NC12C=CC3=C1CC(O3)C2CO N=C1NC2C=COC3=CC=C1C3C2 C#CCC=C1C=NC(=N)OC(=N)N1 NC1=NNC(CO)C2C(O)C12C=O C=COCC1(C)N=NC=C1NN CNNC(C)=Nc1c[nH]c(O)c1C CC1NC2C(NC=NN)=NC=CC12 CCC12CC13C(N)C=NN3C(=N)N2 CN=NC=C(NO)C1=CC(=O)OC1 CC12CCC34NC1C1C(NC13)C4C2 CC1=NC2=CCC(=CCCN1)CC2 NN=c1nc2sn1C=COCC=C2 CON=CC1=CC=NC=NN1C CC1C(=O)OC2=C1C1N=CN=C1N2 NNC=NC1=NOCCC2C(O)C12 CC1NC=Nc2coc(c2)CC1N C=NOCCC1=NC(=O)NC1=CN CC1C2=NCCCNC(=N)C1NN2 C=C1C(N)=NCC(C=O)C12NC2C CC(C=O)=NN1C(=O)N=CS1(=O)=O CC1=CN=C(NC=NN)CNC1C N=Nc1[nH]c2c(c1CO)CCC2O C=C(C)C(C(N)=O)=C1N=CN=CO1 C=CC1=C(O)c2[nH]cc(Cl)c2C1 ON1C(=S)NC2(C=NN=C2)C12CC2 C=C1CC(C)(C(N)=NOC)NC1=O CC(C)N=C1C=Nc2nc(=O)sn21 NC1=NCC2C(=O)C(CO)N3CC123 C=C1CNC2=NC=CC2=C1N(C)C O=C1C=NC2=C1OC(CN1CC1)O2 CC1ON=C2C3NC3C3N(C=O)C213 CNC(CO)=NC1CC=C(OC)C1 C=C1COC2=CC3CC2N3CCO1 CN1C=CN(C=O)C(=N)C=C1CN OCC12CC3NC4C3OC(=NO1)C42 CC1(C)CC12C1NC3CN2C3C1O C=C1C2=C(C)CC34CNC(C1N3)C24 N=C1CC23C(C=O)=CC=CC2N3N1 C=CCCc1onc(C=CN)c1O NC1=C(NC=O)C(=NO)OCC1 C=CC(=CO)c1csc(=N)n1N=C CC12CC1(ONC=O)OCC(=N)N2 O=C1CCC12CC1CC23CC=C1C3 C=C1C(NC)=NC=Cc2nnoc21 CC12NC1C(C=O)C1C(N)=NCC12 C=C1C2NCC34OC=C(CCC13)C24 N=C1OC(C=O)C23COC2C=CN13 CC1CC(=O)CC2CC(N)=NC2C1 CC1OC23ON=C4CC2C(N)C1C43 NC1=NC=C(C2(O)CC(=O)C2O)C1 COC1=CC2C3NC3C3C(C=C1)N23 N#Cc1[nH]c(C2CC2)c2c1CN=N2 Nc1cc(C=O)c2c(n1)NC=NO2 ON=CC1N=CC2=CNN=CC21 CC(N)=NC(C)C1=CC=CC1=O C=CCC1=CNC(C)(C=C)S1(=O)=O CNC1=NC=CC2CCC12N(C)C Cc1cc(NOC(=O)CN)ns1 COc1cc(C#CCO)[nH]c1N=N CC12COCCC3CC3C(=NO1)C2 CN1C2CNC34CCC3C(O)CC214 CC(O)CN1C=CC23CC2ON=C13 C=CN=C1CC(C#N)=NNC(=S)N1 CCCN=C1CNC(OCC=O)=N1 CC1=CCOC2C=C3CNC1C3O2 COC(=CN)C(CCC1CN1)=NN OC1C2=CC=CC3(C=CC1CO3)O2 CC=C1C(N)=NNCC2C(=O)OC12 NCC#CC1C=C(C(N)=O)N=C1N CC1C(N)C2=CCN3CC1C23C C=CC(C)=CNc1n[nH]c(C)c1O CC1(C#N)C2NC(=N)C13ON=C2O3 Cc1ccc(N2N=CC(C)C2=N)[nH]1 O=CC12CCC=C3OC(C1)C(O)C32 NC1=NN=CCC2NC2C(=O)C1O NN=CC1=CNc2c(N)csc2O1 CC12CCCC13C1C=NN=C1CN23 CC(C=NN)N1CC(C)(C)NC=N1 CN=C(NO)C1=CN=CC=CN1C C=C1N=C(N)C(=NN=CC=O)C1O NN=CC1OC2=C(COCOC2)O1 CCC1C(N)=NN=CCC1C(N)=O O=S1(=O)CN2C(CO)C3CC=C1C32 C=C(C)C(C)ONc1nsnc1N C=C(N=C1CNC(=O)N1)OC Cc1cc2[nH]c1C#CC1CN1C=N2 NC1CN=CC(C=CCO)=C1NO Cc1c[nH]c(N=O)c1C(O)CC=O CCNC(CN)=NC=CN(O)C=O NC(=NO)C1=CNCC(=CC=O)C1 C=C1C#CC2=CC(C=C2)CC(=C)C1 NC1=NC(CC=O)C(O)C12CO2 CN=CC1=C(NO)CC=C1 CC(=O)C12N=C(N)C3(O)COC1C32 O=C1N=C(N2CCCO2)CC12CN2 CC1OC12C1CC(C#N)(N1)C2C=O C=C1C(N=CN=CN)CC(=O)N1O O=C1NC(=S)N2C1=CC1C(CO)N12 O=S1(=O)C=C2C#CC=COC=C1O2 N#CC1COC(c2cn[nH]c2)=C1O ONC1=NNC2C=CC=CC23CN13 CC1=C2CC=NNC(C)CC(C1)O2 NC1=NCC23CCC(C2=O)C1C3O C=CC1(OC)CN=CC1=CNN C=CC1C(C)=C2C=CC3C(C)N1C23 C=CC1=Nc2occc2OC=C1C CC1(C2(C(=N)NN)OC=NO2)CC1 CC1C(N)=NC=CCOC(=O)C1N N=C1ON=C(CN)C#CCCN1O N=C1NNCCC=Cc2cn[nH]c21 NC1CNC23CC2C2(CC2O)NC13 C=C(N=C(CO)NN1CC1)OCC C=CC(C)C12C3=COC1CC2CC3 NC1=NOC2C(O)C2CC1=O C=CC12C=C3CC(O1)C1(O)CC3C21 O=CC12CC34CC1CC3C2=CC4O NC1=NC(CC=O)C2(C=O)CC12O CC1=C(C)NC2=NNC(C)C=C2C1 C=C1CNN=C(C)C(NN2CC2)=N1 C=CC1=CC(=O)C=C2NN=CN2N1 CC1=NNC=NC=COCC1C COCOCC=C1NC=NC1=NN N#CC1C(O)C1NN=CC=C(N)N NN(C=O)C=CCOc1cnc[nH]1 CN(N=CN)C1C=CC(C=O)C=C1 CCC12CN=CC1=CNN2 COC1=CCN2C3CC3N=C(C)N12 C1=CC2CN3CCN=C3C23CN3C1 C#CCN=NC=C1C=C(C)C(=N)N1 N=C1CN=C2CNC=CC(=O)ON12 CC1=C(N)CC(C=NN)N(C)N=C1 C#CC12CNC3C4CC(O4)C31N2C CC1=C2C3CC(=O)N3C3CC23NC1 N#CC1CC1CNNc1cnon1 C=C1C=C2C3(C)COC2(C1)C(=N)N3 N=C1OC(C=O)C=C2OCC=NN12 CCC=CC#Cc1cc[nH]c1N=O C=C1C(N)=NN=CC(=O)NC1(C)C CC12CCC3=C1CC(O3)C2CCN CC1(C#N)C2NC3C4C2=NOC4C31 O=C1C=CC=NOC2=NCC1ON2 CN1CCCC2CC=C(C2)C(=O)N1 C=C1CCC2NC2C2=NN=C(C2)O1 C=CN=C1CNC(C(=C)C(C)N)=N1 CNC1=NC=C(C)CNC1C=NO C=C(CCN)C1=NC(=CN)C(=N)N1 CC(N)c1ncsc1ON(C)C=N CC1=CCC2NC=C3C(=O)CC1C32 NC1c2[nH]ncc2C12CC=CO2 O=C1C2=CNCC1NCC=CC=C2 NC1=CC2=NCC(=NN2)CCC=C1 CC1C=CNC(N=CN)=NC1=O CNC1=NC(OC)=NNCC1C#N CC1=CC23CNC4(CNC2C4)C3C1 C#CC1(CCC)OC2=C(CNC2)O1 CN(C(=O)NN)N(C1CC1)C1CC1 CC1OCCC2CC2c2ccc1[nH]2 NC=C1C=CC=CC2(CN2)C1=NN O=C1N=COS(=O)(=O)C1=CC1CC1 NC=NC12CC1CNCC(O)C2=O O=C1Cc2oc3cncn3c2N1O CNCC1(O)C2CNCC1CNC2 CC=C1C(N)=NCC2CC(=O)CC12 CC12CC1(C(C=O)CO)OC(=O)N2 N=c1cncc(CS(=O)(=O)O)cn1 CC(N)=C1CCN(C)C(N)=CC1=O CCC12C3NN=CC(CN1C=N)C32 C#CC(=CCO)C1N=CC=C1NO OC=Cc1cnc2n1CC1CC1O2 CC1C2(N)C=CC13CC2=NN3C=N OC1C=Cc2ncn3c2C1=CCO3 NC1=NNC2(C(=O)O)C=COCC12 CC1OC=CC(N)C23NC=NC2C13 NN=CC1(OC=O)CNS(=O)(=O)C1 C#CC(N)=NN(C=C)C(=N)C(=O)O CC1(N)C(=N)NC2=NC=COC21 CC1=CSN2C=NCC(=O)N=C12 CC(=O)C12C(=O)C3(C)OC1OCC32 CC1=C(N)N(C=N)C2(CNC2)C1=O N#CCC1C(N)=NC=CC(=O)N1O C=CC1C2C3=CC1(C)CC2(O)CO3 C=CN1CC2=C(C)CN(C)N2C1=S C#CC1(C)ONc2nn(OC)nc21 NC1CC12CC13CC(CO1)NC2C3 CCCC12C3C=CC1N3C1CN2C1 CC1N(C)C12C1=COCC1N1CC12 CCC1=COC(C)OC(NC=O)=C1 CC12C(=O)NOC3CC(C#N)N1C32 NC=NC=CC#CC(=O)OCCO CONC1=NNC=CS(=O)(=O)CO1 CCC(=O)N1CCON=C1N=CN OC1C2CCOCC34NC3CNC124 Nc1c(CCC=O)c[nH]c1N=O CCCn1cc(NC)c(NOC)n1 NC1=CC2=NNC3C(OCCO1)C23 C#CCC12NC1(CO)C(=C)NC2=N CC12OC(=NN3CC3)OC1(C)C2O C=C1CCC=C2CNC3C(CO1)C23 CCC1=CN=C(CNC=O)C1=NN C=CC1CCN(N=CN)C(C)C1=O C#CCCN(NC)C(C=CN)=NC CC(C)c1nnc(=NO)cnc1O CC=C1N=C(N)C2(C)CCN2C1=O NCCC1N=Nc2c[nH]cc21 CN=CC=CNN1C(=O)C(O)C1C CC(=NC1=CC(C)CC1CO)NO CC12NN=C3C=CC(C1=O)C32O CC1N=C2NCCC3N(C)C23C1C C#CCC1NC(C(C)NC)=NC1=C C#CC1NC2(CN(C)NC2=O)C1C NCCC12C=CC3C(O)C(C=C1)N32 O=C1c2nnsc2N2C(CCO)C12 NC=NCC1(CO)NCC(=O)C1=O C=CC1=CNC=CN(CC)C1=N CC1=CN=CNC(=N)C(N)C#C1 C#Cc1c(C=CO)csc1CCO CC1=NCC23CN=CNC2C(=O)N13 C=C1CC23OC4OC2C1C4(N)C3C CC12C(N)=NNC(=O)C1C2C=NO C#CCOC(=NC(=O)OC)NOC CC(=O)CC=CC1C(=N)NNC1=N Cc1c2nnn1CC=COCC2=O CC1=C2COC13C=C(CO)C2C3 CC1=CCC(=NN)c2cnn(N)c21 C=C1C(N)=NC2C(=O)C1(O)C2C O=C1NC2=NC1=NOC1CC(C1)O2 CC1(C)C2CN=C(N)CC1C(=O)C2 CCC12CNC=NC1=NOCC2C Cn1cnc2c1C1CC(=O)N1N=C2 C=C1N=C2NN=CC2CCN1C=N NCC1=C(N2CCC2)OC=NN=C1 CCC(=O)OC1(CN)CNN=C1N OC1CC(O)C1N1CCNC(=S)N1 NC=C1CNc2ocnc2C1=NO C=CC(=O)C=CNNc1ccsn1 CONC(=O)CCC1CNN=C1N COCCN=CC1=CNNC(=N)C1 C=CC(=C)C(ON=CN)C(=O)O C=C1COC2=CCCCC3(C)OC123 C=CC1=CC(=NC=NC)C(=N)N1 CN=C(C)C1=C(NO)C2CC1N2 NN=C1C=CCONC=NOCC1 NC1=C(C=O)NC=C(C(=O)C=O)O1 CCC1=Cn2cnc(c2)CON=C1 C#CC(O)(C=O)CC(N)=NC=N CCCCC1N2C3CC1(C=O)CC32 N#CCNCCc1cc(NO)n[nH]1 CCC12C(NC=N)=NN(C)C1C2C N#CC1(O)C#CC=NNC(=S)NC1 C=NN=CC1=C2N=CC=C2C=C1 CC1C2=COC1OCCCOC2=O NC1C=C2C=CC(=C2)CC2CC1N2 N=CN1OCCC=CCN(O)C1=O COC1=NCC2CN=C(C(=O)O)N12 C=C1CCCC(=O)CN(C)NC=N1 C=C1CNCC(NO)=NC=C1C CC12COC1C13N=CNC1C3C2O NCC1=NC=C2OCCOC2CN1 c1c2nc(co2)oc2csc(c#1)c2 C1=c2c(cc3c4c(nn23)CO4)CO1 C1C2C3C4C5C(C(N13)C41CNC1)N25 C1=NC(=c2cc3c(o2)=NNC3)CN1 CC12OC3C4C5C6C(C(O1)C3N56)C42 Cc1nnc2ccn(c(C)co1)-s-2 O=c1cc2[nH][nH]cc3ccc(o1)c2-3 Cc1coc2c(=O)c(cco1)=NC=2 N=c1cc2cc3c(=O)occ-3c-2n1 N=c1ncc2cnncoc=2c1=O CC1Cn2c(oc(=CO)c2=O)=NN1 C1=CC2=NC34CCOC3(CN2S1)C4 O=C1NCc2c1cc1n[nH]cnc2-1 NC1C2CC3N4C(C5=CCNC513)C24 OCC1C2C3C4C5C6C5C(C43)N2C16 C(=C(c1ccon1)C1CC1)C1CC1 Cn1ccc2cc(nnc1)sn2C N=c1cc[nH]c2c(=O)cc(N)c=2[nH]1 NC12CC3C4OC15C=C(C34)C2NC5 C1C2C3CN2CC2N4CCC32C1C4 CCn1c(C)n[nH]c2ncc(=O)c1=2 CC12C3CC4C5OC6C(C61)N(C45)C32 C1=CC23C(=CC4C(C5CC2O5)N43)O1 C1=NOC2c3nn4c(c3NC12)CC4 CCc1ncc(=CO)c2c1N=CN=2 N=c1ncc2occc(C=O)nc1=2 c1cnn2ccc(ccnn1)nc2 C=C(C)ON1OC(O)=C2CNN=C21 CC12C3C=CC45CC(CN14)C2C35C CC1=C2CNC2=C(C)N2CCN=C12 NC1C2C3C4(N)C5C(C1C34O)N25 C1=NN=C2N=C3CNC3=CC=C2O1 C1C2OC3C4C5CC6C(C1C24)C6C53 C1=Cc2c3c(oc2=NOC1)=NC=N3 O=c1oc2nccc3snc(o1)c23 C1=C2C3C4CC5C(C1)CCC25CN43 Cc1c2c[nH]c(=N)on-2c(=O)c1O NCC12OCC3(O)C=C1C(=NO2)C3 CCC(=N)c1cc[nH]c(C)n[nH]c1 C1C2N1CC13COC4OC(C1)CC423 OC12C3C4C3C(N3C4C31)C21COC1 OC1CC23COC14OCC(=C24)CN3 C1=CC2CC3(C=CC4=C3C2C=C4)O1 C1CC2C3(CNN=C4NOCC423)N1 CC12N=C3C4C=CC(C1N3O)C42C C1NC2CCC3(CC2)CNC1=NN3 C=c1[nH]cnc2coc(n2)c(=O)o1 CC1=NN=C2C3CC4N5C(CC124)C35 CC1OC23C=C4C5C(C5C2C41)C3N C=C(c1c2c(nn1N)OC2)C(C)O c1cc2nc3coccc3nc2n1 CN1Cc2c3c(n(O)c2=N1)=CCO3 CC1=Cc2[nH]ocnncc2OC1 COC1CN=C2N(C=C3CCN32)C1 CC1N2N3ON=CC3=NOCC12C C(=c1cncc2c1=NNC2)N1CC1 CC1C2Oc3c(c(N)n4c3CC4)C12 CC1Cc2c1c1nc[nH]n1c2N c1nc2c(-c3cnns3)c[nH]c2o1 NC12C3CC45COC(C6C3C64)C1C52 c1nnc2n3c(cn12)C1(CO3)CO1 CC1CN2C(=NC1=N)C(O)=CN2O CC1C2C3C4C5(O)CC4(O)C(C25)N13 NC12C3CC4(O)C5CC3C1C5=CC42 CC1N=C2C3C(CC13)c1nnnn12 C1=Cc2csc3c2NSC3=NOC1 C1C2C3NC4C2c2n[nH]nc2C4C13 c1cc2n3c(nn2c1)-c1cscc1-3 C1CC2NC3C4OC(=NCC2C34)N1 CC12C3C1C1(N)CN4C1CN3CC42 C1CC23CC4OC2OC42CCN1C32 C=c1c(=C2N=NCC2O)[nH]oc1=O Cn1c(=CO)c(=CO)c2occc21 C1C2C3OC2C2C4OC(C34)C3C1N23 C1#Cc2ccc3c(con23)C=CC1 C1=Nn2nc(-c3ccco3)nc2C1 C1OC23OCC4C2C2C1C1C(C13)N42 C=c1ccc2n1C1=NCC3NC13C=2 OC12C3=COC14C(C3)CN1C2CC14 OC1C2C=c3c(nc4nncn34)C12 CN1CC23CCC4(N)C1C24C=CO3 C1=NN2C(OC3CC3)=CNC2=NO1 CC(CC1(C2(C)CN2)CO1)N1CC1 C1CC2C3C4=C(CN2C3C1)OCC4 CC1OC1c1nc(=O)c2c[nH][nH]n1-2 c1cc2csc(n2)on2cc1cn2 NNc1nc2cc(cs2)occ[nH]1 O=CC12CCN1NC(=CN=O)C2O OC1C2OC3C4=NN5CC5C41OC32 C1OC2C3CC1=C1C4CCC4C2C13 C1C2NC3C4C5C6CN4C1C2C3N65 CN1C2C3CC45ON=C(C2C14)C5O3 C1OC2C3C4NC15CC(=NNC25)C43 C1C2OC3OC4C5OC3C1(CC24)O5 CC=C1CN=c2c([nH]c(=S)n2C)=N1 O=CC1C2N=CNNC(=CN=O)C12 C=C1C2C3CC4(C2O)C1C3CN4C C1=CC2C3C2C24CCN3C2C1NC4 C1CC23CCC4(CC2)CN=C(N1)C34 C=C1C2CC3(C4NC24)C1C1CN3C1 N=C1c2nn3c(c2C2CN12)C(=O)C3 C=C1C2=CONC=C2c2[nH]cnc21 C1CCN2CC3CC(CC2=NC1)N3 C1=CC2N3CC1C1C3C3C=CC12N3 C=C1C2C=CC(S1(=O)=O)S2(=O)=O NC12C3CC4C5C1C1(CC1)C(C32)N45 C=c1c(=N)[nH][nH]c1=C(C=N)C(C)C C#Cc1cc2c[nH][nH]cnoc-2n1 C=NN1C2=CCC3NC(C1=NO)C23 C#Cc1cnnc(OCC)o[nH]c1 C1OC23CCC4(O2)C(C3)C1C1NC14 CC1C2C3C(C=C4C=CCC412)N3C O=c1oc(C(CC2CC2)=NO)ns1 C=CC1=NC=c2c(=C)[nH]c(=S)n2N1 C=C1C23C=C4C(OCC14C=CC2)O3 Cc1nc2noc3c(c-2n1)NCC3 CC1CC2(O)C3C4C1C1(N)C(C21)N43 CC1=C2C=CC(C)CNN=C(S1)S2 O=c1ncn2ccoc(cc[nH]1)c2 C1=CC23OCC4C2C2C1=CC3CN42 CC1=CC2C3(CS2(=O)=O)OCC=C13 OC1C2C3OC4=C(CCC42O)C13O c1nc2c(cc(=NN3CC3)n1)NC2 N=CN1Cc2nc3c[nH]oc-3c2O1 C1CC2(CN3CC34C3CN3CC24)O1 C1C2NC3(C4CCC3C1N4)C1CC21 CC12COC3(CC4(C=CC3=C4)C1)C2 NC12C3CC1C1(OCC4C1C42)O3 C#CC1C2OC3C4C(O2)C2C(C34)N12 C=C1C2C=C3C1C1CC4(N)C3C4C21 C1=C2CC(CNc3cn(cn3)C2)O1 C1=CC2C3C=C4C(N5CC5)C3N2C14 OC1C2CNN=C3C=C(NS3)C1O2 Cn1c(=O)c2c(n1C)=CC(=CO)N=2 C1=CC2C3=NN=CCC1OC2ON3 O=C1N=C2C(=C3NOCC34CC24)N1 CC12CC=C3C1C(CN3C(=N)N)O2 Cc1c2cc(=O)occoc1CN2 NCC(=CNO)C=C1C=NC(=O)N1 C1CN2C3C1N1CCC4NCC41C32 CC12CC3C4OC1C1C5C4C3C2N51 C1C2CC34CCN5CC53CN=C4N12 CCC1C2C3C4=CC1C(N)(C=C4)C32 C=CNc1cc(C)nccc[nH]n1 NC1CC2C3(CNC24C(O)C14)CO3 C1C2CC3CC4CC35NN=C2C5C14 Oc1csc2c1SN1C=CCN=C21 O=S1(=O)C=CC23CC2C2COC31O2 Cc1nc2cccnc[nH]c-2n[nH]1 OC12CC3=CC(CCC(C1)C2)CO3 CC1=C2NC=C(C#CC=NN1)C2=O C=C1C2C3C4CN5C4C(=O)C(C23)C15 C=c1ccc2oc3n[nH]c(=S)n3c12 CC1C2CC3CN4CC1C(C4)(O3)O2 C1=CC2C3=CNC2=NN=CCC1O3 CNc1c2ccnc-2c(C)[nH]c1C C1=C2OC3CN4C5C1CC5OC2C34 CN(c1nn2cccc2o1)N1CC1 CC1C2OC3CNC24C3C2CC4N12 C1=CC2C=CC3C4C1C1OC23CC14 O=C1OC2C3(C=CC24CN14)CCN3 C1=CC23C4CC(C14)C2NC1CN3C1 S=c1[nH]oc2cc3c(n12)N1CC1C3 NC12C3NC4(C(O)C31)C1OC1CC24 C1COC23OC4C5C4C2(C1)COC53 CN1C2C=C3C4C5NC3(CC2)C1C54 C=CC(C=C)C1CN2NN=NC2=N1 CC1CC2=C3C(O)C(O2)C(C)C31C C1NC23CC4C5C1C2C(C1OC13)N45 O=C1C2C3C4C5CNC1(CN24)C3C5 O=CC1CN2C1=CN1CC(=O)N=C12 C1=CC2C3C=C4C(COC42O1)OC3 C=C1CN2C3C4C3C3C2C3(N)C4O1 C1=CCN2Sc3cnoc3C2=NC1 CC1C2C3C2C2C4(O)C=CC12NC34 Cc1c#cc2cncn2[nH]cnc1 CC1=NOCC=C2C3C(CN21)N3C C=CC1N2C3C2C2N=CNC21C3C CC1=C(N)N(C)C(=CC=O)C=C1O O=C1CC=C2N1OC1=NC3CC3N21 Cc1cccc2occc2[nH]o1 C1C2OC3C2CC12C1OC1C1CC132 C1CC2C3C4C5C(CC1CN25)CN34 CC12C3C(=O)C1C1C4C2C(O)C3N14 CC1=C(Cl)C2=NOC(C)CN2N1N C=CC12C=CN3N=NNC3=NC1C2 C1CC2C34CNN=C(N3)C2(O1)OC4 CC12OC3C=CC4C1NC(=O)C34O2 C1=NC2=NC3CC4N(CCC24N1)C3 OC1(C2C3C4OC5CN(C53)C42)CC1 N=c1oc2ncc(C=O)[nH]c-2c1N C1=CC2C3C4COC5(OC1CC35)C24 Oc1con2ccocnnc12 Cn1c(N)cccc2nc(=N)nc1-2 CN1C2CN3C4(C)C5CC(C5)C34C21 CC1N2CC3(C)ON=C(C23)C1(C)N C1=CC2C3C(=NNC=N1)CN=CN23 C=CC1C2C3OC4CN=C(N12)C43C C1=C2C=C(C1)c1cc(co1)CCC2 OC12C3=COC1=NNCC2=CCC3 CC1=COC2=COC3(C12)C(N)C3N Cc1cnc2c(C)[nH]n(O)c1-2 CC(C)C(C=O)=c1ncc(=CN)[nH]1 CC12NC1C13CN4C(C(=O)O1)C3C42 OC12C3CC4C(C31)n1cncc1C42 C1CC23CC4CN5CC2(CC1C53)N4 N=c1ncc2n3c1=CC=CC3CN=2 CC1=NCC2(C3OC2C2NC23)N1O Cc1nn2c3c(nc2n1C)=NCC=3 CC(N)C12CC3C4C(C5N3C51C)N42 O=C1CC2(CCC3C2=NN2CC32)N1 O=C1OCC23C4CC5C(C52)N(C4)C13 S=C1NC2C3CC4C5C3CC2(N1)C45 C1CN2C3C4CC1C21C2CC2C3C41 C1c2nnc(s2)C2OC2CC2CC12 CC12OCc3[nH]cnc3C1=CNO2 NC12COC3CC4C5C1C=CC32C45 Nc1ncn2[nH]c(C(O)=CO)cc12 OC12C=C3CCNC14CN1C(C12)C34 NC1C2OC3C4C5C(C15N)C2(N)C34 CC1(C2CN(C3(CN)CC3)C2)CN1 C1=C2OC3C1C1C4C=C2C3C1OC4 Cc1cnncccn(C=O)c1N OC12CC1C1C3C=C4CC1C2(O4)O3 O=CC1=C2NC34CCC(C(C3)O2)C14 C=C1CC2C3(O1)OC1C(C3C)C12C O=C1C2C3CC4C5C=NNC53C1N42 C=C1C=CC2CN=C3N4CC4C1N32 O=C1CN2C3C4C3C3C2C3(O)C4N1 OC1C2C=C3CC4C5C2OC31CN45 N#CC12NC3CC1C1(CC2=CO1)C3 C=C1OC2C3N4C1C(C23N)C4(C)C C1=CNNC2(CN=CN=C1)CNC2 CC=COCc1cnnco[nH]c1 N#Cc1nn2ccc(=O)c-2c(N)[nH]1 CC1CC2C3OC4C5CC1(C=C53)C24 C1C2CC34CN1C(C3N2)C1(CC1)C4 C1=CC2C3C4C5C1CCNC25CN34 C1C2C3C4NC4C24CC2C(O4)C2N13 C1=CC23C4CC4C4C5C(C(O1)C42)N53 OC1CN2CC1=NN=CCC=N2 C=C1CONC1=CC1=NC(C)CC1 N=C1NCC(C=O)C(=N)C=CNO1 CCC1C2C3C4C(N14)C1(NC1C)C23 CC12CC3C4=C1CCC2C3(C)C=C4 OC1=Cc2cccc3cnnc1c23 C1CC12OC13CC1C1OC1C31CC21 C1=CC2=CCNC3C(CN4C2C34)O1 OC12CC34CC5CC(C3C1=NO4)C52 O=C1NNC2C3(C=CC4OC142)CC3 CC1C=CC2=CN3N=NOC3=NC21 OC12C3OC4CC(C31)C1COCC412 CC(=O)C=C1CC2=CON(O)C2=N1 C1=C2C3=C(OC24CC4C1)C1CN1C3 N#CC12CC1N1C=C(O)N(O)C1=N2 OC12C=NN=CC3CC1=C(CC2)O3 CN1C=C2C3(CCC3CS2(=O)=O)C1 CC1Cn2nc(-c3cc[nH]c3)cc21 C#CC(=CC(CC)=NC=NO)NN C1CC23CN=C(N2)C2NC4C1C4C23 OC1C2CC=C(N=CNN3CC13)O2 CNn1ccc#cc(C)nnc1C C1=C2C=C(C1)Oc1nc(n[nH]1)NC2 C1C2C3NC14C1OC1C1OC1C4C23 C1=NNC2C3C4=CC2(ON=C4)OC13 O=CC1NNC=C(N=O)CCC1=O CC12CC3N=C4SNC=C4C3C1O2 CC1C2CC34CC3(C3CC3N4C)N12 C1C2NC3CN1c1nnsc1C23 C=C1C2OC3C4C5C=CC(O2)(C14)C53 C1=C(c2c[nH]cn2)SC2=NCCN12 CN1CC2COC3C4NN=C(N1)C243 OC1C2CC3C(=NCC31)NN=CO2 C=CC1C2NC3C(=O)C=C(C32)N1C N#CC1=C2CC(ON=CC=CN2)O1 CC1ON2C(C)(CC1O)CS2(=O)=O C=C1C2=C3CC1CC21CCN(C3)C1 COC1C2C3C4C3C3C2(C)C3(O)C14 C1C2=NOC(COC3CC1C3)ON2 CC1C2OC3C4=CC5C(NC5C32)C41 CCC=C1ON2ON=CC2=NC1C C=C1C=C2C(N=C3N=CSN23)C1=O C=C1C=c2c(cc3csc(=N)n23)C1 C1C2OC3C4C5C6NC6C4N5C3C12 C1=NN2C(=NC3CC24COC3C4)S1 C1=CCN(c2cn3[nH]ccc3n2)C1 COC1C2CC3C4C(C1C31CC1)N24 CC12CC3OC4=NC(CN4)(CO1)C32 CC12CC3N4C5C(C5(N)CC41)C32C O=C1C2=C(O)C=NC2=CN1C=NO OC1C23C=CC=C2CC2CCOC213 CC12C3C4C5NC4C1C2(C)C1C5N31 CC1CC(=N)NN=C2C=CN(O1)S2 C1=CC2=NN=C3NC4CN(C23)C4C1 CC1CC2(C3OC4C(O3)C42N)N1C C1CC23CCC4(OC2)ON=C3C4N1 C1=C2CN3NC4CC4N=C3C2CO1 CC12CC3C4NCC5OC54C1N3C2 CC1C=C2C3OC14C2CC1OC4C13 CN1CC23COC=C4C5C(C1C42)N53 COC1C2C3C4C5=NOC(O5)(C14)C23 CC1=CNc2ncnnc2C(O)=C1 N#CC1=c2cnc([nH]2)=NOCCO1 N=C1NC2CC=CC3C2=C1C1CC31 N=c1n2cc(n1N)C=CC=CCC2 C1=NNC23CC4C1C1CC(C12)N4C3 CN1CC23C4NC5C4C(C1C52)N3C O=CC=C1N=C2N=CC(O)=CN2N1 C1=C2CN3C1C1C4C3CCC2CN14 CC=C1C2C(=O)C3ON=C(C32)N1C N=C1NC2C3C4NC5C=CC1(C24)C53 NC12CNC3C4C5C4N4C3C4C1C52 O=Nc1ncncc2cc(=O)[nH]c1-2 O=c1[nH]c2oc1=CNCC(O)CC=2 C1=CC23CC4(CCN5C(C4)C52)C1N3 CC1CN2CC34C(=CCC3C4C)C12 C1NCC23CN4CC(N=C1N2)C3C4 CC1CN2NC1=NC=COCC2C N=C1NC2C3CC4(NNC=C14)C2O3 CC1=C2OC3C4OC(C#N)(OC24)C13 NC1COC2C3C4C3C13CCN4C23 CC12NC3C4C=CC3C1=C4NC2=O O=C1C2OC3C4C=C2C2OC1C3C24 OC1C2=C3CC4NC(C4CO2)C1C3 C1OC23CC4=C1C2CC1C4OCC13 CC12C3CC4(C(N)CN)C1CN4C32 C#Cc1nc2[nH]scc-2c(=N)c1O O=C(C1=C2OC=NN2CC1)C1CO1 CC12CON=C3N=C(CC1C2)NO3 CC12CC3CC4C5(N)C3N1C2C45N C#CC1(C(C(=C)CO)N(C)C)CN1 CC12C3CCC4(CN)C5C(C1N42)N53 NN1C=NC23C(=O)OC4C(N=C12)C43 COC1C2OCC3C4(CO4)COC123 CC12CC3=C4OC(O3)C(C)(O1)C42N C1=C2C3NCC45CNC(C(C1)C34)C25 NC1CC2C3C4C=C1C21CCC3C41 C=C(O)c1sc(N)c(CC)c1NO OC1C2CC3CC24CC1(C=NN4)N3 O=C1Oc2[nH]c(=O)c3oncc3c21 C1=CC2C3C(=NN4CCC34)C3C1C23 O=C1CC2CCC3CCN4C1C324 Cc1c2ccocnc-2cc1=O C1CC2(C1)C1C3OC24CNN=C4C31 CC12C3CC4CC1(CN43)N=CN2N CN1C2C3=C(N=CON=C3)C1C2N NC(C(=O)CCO)=C1C=CNN=C1 O=CC(CNC=NO)=C1C=CNN1 C1C2CC34N=C(NOC2C13)C1OC14 C=CC1CC2(CC3N(C2)C3(C)C)N1 C1=CC2=CCC(=C3COC(C3)O1)C2 C=C1C=c2cnnc3c2=C(CC3)C1 C1=C2CNC3C4C(CC23C2CC42)O1 C1=C2C3C4CC2(CN2CC2)C(C1)C43 C#CC12N=C3SC=C(O)N3C1C2O C1C2OC34CC(=NO3)C3C2OC3C14 OC1=CC2=NCCN=CN2C(O)=C1 CCn1[nH]c2cc(=O)sn2c1=S c1nnc2on3c(c1-2)CC3 CC12CC3(N)C4C(=NC5C4C51)NC23 C1C2OC3CC14CC1OC4C3NC21 NN1C=NN=C2OC=C(C#CC1)S2 C1=CC23CN4CC(CCC14)(CN2)C3 C1C2CC34CC(CN5C(C3)C5C14)N2 CC(=C1C2C=CC3C1OC23)C1CO1 Nc1nc2n3c(ccc3n1)NCC2 O=C1C=CC(=C2CC=NN2)N=NC1 CC12C(CN)C3C4N1C4(C)C1C2N31 C1NC23Cc4onnc4N(C2)C1C3 C1OC23CC14CC(C1OC12)N1C4C13 C=C1C2C3C4=CCN(C23)C1S4(=O)=O C1OCc2c1sc1c2CC2COC12 CCC12CC3CC14OC1C(C12)C4O3 CC1N=C2C3C1NC3C1CN=CN21 CC(C=NC(C)CC(N)=O)=CNO CC1=C2CC3C(C1)C1OC2=C(C)C31 OC1C2OC3C=COC4=CC2OC431 C=C1C2C3C4C5C(C=O)C4N(C15)C23 N#CCC1=C2CNN=C2C(Cl)=CO1 CC1C2C3C4=CC25CN1C3C5(C)C4 ON=c1onc[nH]nc2cc1CC2 ON1OC2=NC=NCC#CCC1=N2 N=CN1N=C2C3CC14C2CC3C4N NC1Cc2c3c(nc(O)c21)NOC3 O=C1C2NC34C(=O)C2C(C2CC23)C14 C=C1OCC2=NC3(CN12)C(C)C3C C1C2C3NC4(C5CC5CC24)C2C1C32 C1=NC2=NC3C4CC5NC5C43C2=N1 C=C1CN=C2C1=CN(N)N2OCC C1=COCC2=CCC3C2N3N=C1 C1=CC2CC3OC4(CCC3(C4)O1)C2 C1=C2CC3C4CCC5OC4C2C53O1 CCC1=NN(C=O)C(=CO)C1=NC C1=NC2CC23C2C4NCCC42CN13 OC1C2=C3CC4C5C(C1N4C3)N5C2 C=C1C=CC(C)N=C2C=C(C=N2)C1 N=CNC(N)=NCCC1=CCNC1 C1=C2CC34CC(NCCCC13)C2C4 N=C1NC2CC3C4C5OCC2(C14)C35 Cc1cn2nc(N(C)N)[nH]c2c1C CCC1C2CC(N)(C(NO)=N2)C1C OC1=C2C(=NOC23CC(O)C3)SN1 O=C1C2COC13C1C4CC3(CN41)N2 C1=NNC23C(COC24ON=CC43)O1 COc1ncc(C#N)c#ccc[nH]1 CC1CC2=C3CNCC24CC31CN4 C1=C2C3=NOCC4C(C3)C2C4N1 C1=NOC2CC23NC2C4CC13C2O4 OC1C#CC2=CN=CC(=NNC1)O2 C=c1c2coc(=C)n2c(=S)n1NC C=C1CC23CC4(CCC(O2)C4O3)C1 CN1C2=NC3C(COCOCC2)C31 N=C1C2CC3C4C5C2C5C(C34)N1O CC1C2CC3CC4(CC(CN14)O3)C2 CNC1C=C2N(C=NN2C(C)=N)C1 CC1=CC2C3=CC1(C(C)=C3C)N2C C1=CNNC=NC=CCCNN=C1 C1=C2C(=NN=C3OCCON23)NC1 NC12CC3CN=C(C31)N1CCC=C12 C1=CC2NC3CC24CC3C(=N1)NN4 CC12COC34COC1C23C1CC4C1 OC1C#CC2(C#CC3CC1N3)CO2 C1=C2CC3C4OCC(O1)C3(CO4)C2 O=c1ncc2cccc3nnn1c23 C1#CCN=C2CC3(CC3)C(C=C1)N2 N=C1C=CNN2C(C=C1)C2CC=O NN1C2=NC3C4C(CC31)C2N1CC41 C=C1C(=O)C23CC(C(CO2)O3)C1O CC1N=C2NC=C(C#CCC1=O)S2 CC12C3COC4(CCN1C24)C31CC1 CC1=C2NC(=NC3CC3C=CO2)C1 CC1NN=CN=C2NC(=CS2)C1C CN1CCN2C(=N1)SC(N)=C2C=O C1NCC23NN=C4C5NC5CC42C13 OC12C3CC=C4C3C(C3CO3)C1C42 C#CC1=c2c(nc3cncn23)C=N1 C1=C2CCNC3=NNCC=C(O1)C23 O=C1OC2=NC3C4CC(C3O4)N2O1 CC1=NC2C(=NC(C)=C2C)N=CN1 C1=NN2C(=CCCN=C2N2CC2)N1 CC1CC=C2CON=C3CNC1=C23 C1=NNC23CC2C2C4CC13C2CN4 C1C2NC3C1C1CN4C5C2C3C1C54 C1CC2CC3C4NC5C4C2OC35O1 CC12CC34C(=CCC3CC4N)C1O2 CC12CC3CC1=C(C(O)CO2)C3O OC12CC34C=CC5C3OC(C1N4)C52 CC=NN1CCN2N=CN=CC=C12 O=C1N2CC=CCCN=C(C2)N1O O=C1CCCN=C2N=NC(=CN2)C1 C#CC1=C2CC3C1C1N3CCC21O C=C1C23C=CC4C2C2OCC14C2C3 CC1CC2(C(N)=NNC2C=O)C1C c1ncc(NC23CC(C2)N2CC23)s1 C#CC12CON=C3C1CC(C2)N3N C1C2CC34CC5C(N3)C5C(=NN2)C14 C1=C2C3CCC4(CC(CC24)O3)NC1 CC1=C2CC3N=C2NC2CC3C2O1 N=c1cc2nc3n(cc-2[nH]1)NCC3 NC1C2CCC3C24C=CC(N4)C13O NC12C3C=CC4C1CC1CC2C3N14 C1=CC2CC3C4C(=C1)CCC4=CC23 C=CC12CC(N)C3(C1)ONC(=N2)O3 C1=CC2C(C1)c1cc3[nH]ccc3n12 C1C2OC3C4C5CC13OC5C1C2C14 CC1=NN=CCN=C2NC1=C(C)S2 C#Cc1c2c(c(N=O)n1O)NNC2 C=C1C2C3=CC4CC(C)(C42)C2C1C32 N=C1C2OCC3(CO2)C(=N)N=CN13 C=C(C)C1N2CC3N(C)C(C2)C13N O=C1OC2C3CC4(ON=C3C4O)C12 NC1C2C3=CCCCNN=C(O3)C12 C1C2C1C1C3C4CC15COC4C5C23 C=CC12CC34ON=C(C5C1C53)C4N2 C=CC1=CONc2c1[nH]n(C)c2=O CC1C2CN3C4C(C5C1C53C)C24O C1#CCNN=C2C=C(C#CC1)NS2 OC12C3NC4C5C4C4C(C5C31)C42O CN1CC23CC4C5C(CC2(O)C41)N53 CC1(C)CC2(CN=C3SNC=C32)O1 C=C1COc2c1n1nccc1n2N c1cn2nc1CNCC1COC2=N1 CN1CC12C1C3C1C1(N)CC3C12C OC1C2C3OCC4(C3=CC3OC34)C12 C1=NNCC2C=C3OC(C=C3C2)C1 C1CC2OC3C4=NCCC(C1)(N4)C23 O=C1CCCNC2C3C=C(CC32)O1 N=c1[nH]c2c([nH]1)C1NC1CC=C2N C=C1C#CCC2=NC(=NC1)NN=N2 NC1C2CC3C=C4CC1(O)C3(C2)O4 C1NCC23CC4OC(=NO2)NC3C14 C#CC1Cn2cncc2C=CNO1 N=C1C2=CC3(CCC4(O)C2C43)N1N O=C1CC2CC34CC3(CCO4)N12 CC1C2(C)CC3C(=CC(=O)C31O)N2 CC12CC3=CC1C1(N)C(C=CC21)C3 CC12CC3OC=C(C31)C1(O)CCC12 CC1(C)COC2C3C21OCS3(=O)=O CN1Cc2cn3c(c21)C1NC1C3=N C=C(C(C)C)C1CN2N=NOC2=N1 NC1C2(N)C=CC13C1CN4C(C12)C43 O=C1CC2C3ON4C=NC(=O)C14C23 O=CN1OC2COC3OCC4C1C234 NC12CNC3C=CN=C4NNC1C432 c1cc2cc(no2)[nH]c2nc1c[nH]2 C=C1C23CC4CCOC14C(CN2)C3 C1=CC2C3=NNC4C5OC(C4C13)C25 OC12CC3=C(C1)C1(C2)NN=CC1O3 O=C1C=NC(N=C2COC(=O)N2)=C1 C=C1C2C3=NNC4C(OC2CC3)C14 NC1C2=C3CC4C(CO3)C(C2O)C14 CC12C=C3C(=C1C=NN2)OC1CC31 O=C1C2CC3=C(C1N2)C1C(O)C1C3 O=CC1=CNOCOC2CC2N=N1 COc1nc2c(cc1C)=C(N)CN=2 CN(C12CC(CC1=O)C2)S(C)(=O)=O Cc1c2c(cc3sccn32)cn1N CC1CCC12CN1N=NSC1=NO2 CC12CC=C(O1)C1CC1CC=NO2 CC1=CC(=CC=NO)NC(O)=C1C C1CCOC2C3CC2C(=NOC1)O3 NCC1C2C3C(=NC=CC3O)NN12 C1C2C3NC1C1(CNCC21)C31CN1 C1=CC2C3C(C1)C1C(N21)C31CC1 C1=C2COC3OCC(O1)(O2)C31CC1 CC12CC3OC45CCC(C41)N(C5)C32 CC1=NC2C3C2C2C(C3N1N)N2C C1=C2CCC3CC4(COC(O3)C24)O1 CC12OC3(CN=C1NN)CC2=NO3 CC1=C2C3C4CC2C(CO)(C=C1)C43 C=C1CC2C3C4C5C(N25)C1(O)CN34 CC1NC2CC34COC3(C=NN4)C12 Cc1nc2n3c(nnnc13)CCC2 CC1C2OCC3(O2)C2NC4C(C12)C43 CC12CC3(N4CC4)C(OC1C3O)O2 NC1CC2(O)C3=CC4CC31CC42N C=C1C2=C3CC14CC3(CCN4)CO2 C=C1C(C(=N)OC)=CNNS1(=O)=O CC12OC3=CC4CC1(C=C3)CCC42 CC1C2=C3C(C)C1CC3(C)C=CO2 NC1C2CC3ON=C4CCC1C43C2 O=C1C=CCNN=C2SN1C=C2O C1=C2CON=C3ONN=C3C2NC1 C1#CC2OC3C(NN=C1)C1NC3C21 N=CN1C2C3C4C5NC4C(O)(C52)C31 C1=C2CC3(CNC(=N3)NNC1)CO2 CN1CC2=C(OC=O)NN(C)C2=N1 CN1CC2C3C4CC(C=N1)(CO4)N23 C1=C2CCOC3C4C5CN(C24)C13C5 Cc1[nH]cc2c1-n1nc3c(c1-2)CC3 C1C2NC3C1C1C4C(CC5C2N51)C34 C#CC1=NC(=CO)C(C(C)C)=C1O CC1C2C(=O)N3C4(C)C=CCC34C12 NC12C3C4CC(NC5C1C5(O)C4)C32 C1CCC(=NN2C3C4CC(N4)C32)C1 NC12CC3=C4CC(C1)N(C4)CC2O3 CN1C2=NCCCOC2=C(O)N1C NC12CC3CC45CC1N(C4)C2C5N3 O=C(N1C=COC=C1)N(O)CCO O=C1CC2C3OC4CC15CC4C3C25 CC12CC34CCNC35CN(C4)C1C25 CC12CC3C=C1C1C(COC3)C1C2 CC1N2C=C(O)NC2=NCC12CO2 OC12CCCC3(C1)OC1OC3C=C12 C1=C2CN(C1)CCC1CC(=NO1)O2 CC12OCCC34C=C1C1C(C32)N1C4 CN1C=C2C(=NC(N)=C2C(=N)N)C1 O=C1NOC23C4CC(C5C2N5C4)C13 C1=CC(Nn2cc3c(n2)NC3)CO1 CC1C2C3C4NCC5C4C(N15)C32N CC12CC3(C=O)NN=C(NN1)C23 C=C1OC2=C3C4C=NOC13CN4C2 CNN1C2=NC3C4CC1C3(CN4)N2 CC1C2C3C4CC5OC=CC5(C14)N23 OC1CON=CC=C2NCC3C1N23 CC1C=NN2C(=N1)C=C1OCON12 Cn1ccc(-n2cc3c(n2)NC3)n1 CC1(c2n[nH]n(N3CC3)c2=O)CO1 ON1C=Cc2onc3c2C1=NNC3 c1nc2c([nH]1)C13CC4C(C1C2)N4C3 Cc1cc2c([nH]c1=O)C=CON2 C#Cc1cc2c(N=O)[nH][nH]c-2n1 OC=c1c(CO)nn2c1=NCCO2 C#CC1=C(OCC)C(=CO)C(C)=N1 CC1C2C3C4C(=NN2C=O)CN1C43 CC(=CNN)C1=NCC(=C(C)C)C1 CC12CC3OC34C3C(N)C3CC14C2 CC1C2CCCN=C3C=C(NO3)C12 C1=CC23C4CC5C2CN5C3CNC14 C1NCC23CC4C1C(CC1C4C12)N3 C=Nn1c(C=O)c2[nH][nH]cc-2c1=O NC1=NNc2c(csc2N)CC1=O CN1C2C13C=CCC3COS2(=O)=O CC12CC34CNC5(CCC1C35)C2C4 N=C1OC=CCCc2nn1c(=O)[nH]2 O=C1CN2C3C=CC24C(C3)OCC14 CC1C2(CC2)C2C3C2C2OC3C21N OC12CC3C4=CC5(COC1C35)C2C4 CC12C3CC4N1C4(C)C1NC3=NC12 N=C1Nc2nc(c(N)s2)C#CCO1 NN=Cn1cc2c(c1)C(=NN)C=C2 C1=CNC2=NCC3C2=NNC3CC1 N=c1ccn2c(=O)o[nH]c(C=O)c1-2 O=C1C=CC23CNC4C5C(CC142)N53 C=C1CN2CC(=NOCO1)C(=N)N2 C1=Cc2[nH]c(c3c2OC3)CNCC1 NN1C2=NC3C4NC=C2OC4C31 C=COc1c(C)n2cn[nH]n2c1=O CC1C2(C)On3c(nsc3=N)C12N NC1=NCC(=C(N)N)C(=O)C(O)C1 CC1C2OCC3C4(CC4)C4NC4C123 C=C1C(=O)N2C=C1NC=NOCC2 CC(=C1CN2C3CNC1C32)C(C)C ON1C=NC2C3C=C1C1COC2C13 NC1CC2C3(N)CC4=CC3C2(O)C41 N=C1C=c2cc3cnncn3c2=N1 O=C1C2C3NC(C4(CN4)C32)S1(=O)=O CN1C2CNC34C5NC(C5CC13)C24 C1=C2CCC34COC(O1)(C1CN13)C24 c1n[nH]n2c3c(nc12)CNCCC3 CC(=N)Nc1cc2sc1c(Cl)c2Cl N=c1c(=CNC=O)oc2cncn12 OC12C3CC3C3=C4CC(C1O4)C2O3 CC12CCC3NCC4C(NC1)C342 CN1CC2C(N)C3C1=NC1CN2C13 N=CN1C2=C3CN4C2C4C2C3CC21 CC12CC1C1C(=NC3=NN=CC31)N2 CC1C2OC34COC1C3=C2C=NO4 CN1C2C3N=C4NC5C1C5C4(O)C32 CC1(C)C=C2C3(CCC2(C)OC3)C1 OC1CNN2C=C3CON=C3N2C1 C1=CC2OC=C3CC4CC(O1)C32N4 c1c2n(c3onnc13)CC1(CN1)C2 C#CC1C23CC4C(N4C)C12OCO3 CC1=C2CN3C4C(=NO)OC2C4C13 C#Cc1ccn2nc(N(C)O)oc12 CC12CC3CC4CC(CC1(C4)O3)N2 CC1(N)C2CCC3C4=CC(C32)C1O4 CCNC1=C(O)Cn2ccc(O)c21 C1C2CC1NN=C1OC(C2)C2NC12 O=C1C2C=C3C1OC1CCC3(C1)C2 O=C1CC23OC4=CC(C5C4C52)C3O1 NC12C3C4=CC1N(CC4)C2CC3O O=C1N=C2C(=C(O)C3NC23)C(=O)N1 NC1CN=C2NC=C(C#CC1O)S2 C1=CC23COC4(CN2)OC=C(C1)C34 c1cc2c(o1)C1=C(C2)NN2CC12 NC1C2CC34CC(=NN3)C2C14N NC12C3NCC14C=CC21CC3C4C1 C1OCC23OC4C5C(C1C52)C1C4C13 O=C1Nc2[nH]c(=O)c3ncsc3c21 NC1(c2ncc([N+](=O)[O-])s2)CC1O C1NC2C3CC2C2(C3)ON=C1O2 CC1OC(C2=CC(=N)C(=N)N2)C1N CC1CC2N3CCC24CC3C(O1)O4 Cc1c(Cl)cc2c(c(=N)c1Cl)CC2 c1cc2cnsn2c1C1=NOCO1 CC#CCC1=CCN=C2NN=NN12 O=C1C=CN2C1=C(O)CN1CC2C1 CC12C(O)CC34CC1C(C1NC13)N42 C1=CC23CCC4C2C(=CCN4C3)O1 C1=CC(=C2C3CC4CN(C3)C24)C=C1 CC12C=C3C(C=C4CNCC43O1)C2 CC12C3CC1C1OC2(C2CC2)CC13 NC1CC23C=CC4CC(N)(C1=C2)C43 C1=NN2C(=NN1)CC1=C2C2CC2O1 Oc1c2ncnc-2n[nH]c1C1CC1 C1CC2=NCCc3nn[nH]c3N2C1 Cc1c[nH]c(=O)n2c(=O)nnc-2c1 c1cnn(N=C2CNC3(CC3)C2)c1 Cc1cc[nH]c2nc3nnsc3c1-2 CC(C(=N)C1=CNN=CC1)C(=O)O NC12C3C4OC(C4N4CC1(O)C4)C32 CC1(C)CC2C(=NC3=C2OCO3)N1 C#CC(=N)N1C=C(N)N2CCN=C12 COC12C3CC4(CC31)NNC=NC42 CC12NC3(C4OCCO4)CC1C2C3 COC1C=C2CNC(=N2)CC#CC1 NNc1cc(=NC2CC2)c(Cl)c[nH]1 Cc1ccsc1C1=C(CO)NNC1 C1NC2C3CC4=NOC2(COC13)O4 C1C2CC3(CN3)CC(CC3CC13)O2 C1=C2C(=NC3C4CC(C4)NC23)SN1 CC1C=C2C3(CC4C(C3)C24C)NC1 C1CC23CCC4(C2)CC2(CO2)C3C14 CC12C=Cc3ncnc(c31)CCO2 NN1N=C2CNCC2=C2CCN=C21 C1=CC2C3CC45CC3NC24CCC15 C=C1C(=O)CC(N)=C2C(N)=NNC12 CC1C=C2OC13C1C2CN2C1CC23 CNC1=NC(OCOC)=CC=CC1 C1N=C2C3CC3ON2C2=C1CNC2 Cc1ncc2nc(C#N)c(=CO)n12 CC12CCC34CC(N1C3)S(=O)(=O)C42 OC1C=C2OC13OCC21COC=C13 CC1CC23CC2C2OCC3(CO2)N1 C=C1COc2c(Cl)ccc1c2O O=C1C#CCC2(C#CC3CN13)CN2 CN1CC23CNC4(CO)C(C1=N2)C34 C1CNC(C2C3CC4(CO4)C2O3)=N1 CC1=C2C(=NCC3CN23)N(C=O)S1 N=C1N=C(N)C2C3C(=O)N(O)C1C32 CC12CC3OC=C4CC(O1)C3(C2)O4 C=NNC=CC1=NC(CN)CC1 C=C1CN=C2C(=C1N)OC(=C)N2N CC12CC3=C(OC4CN(C1)C34)C2O Cn1c2c(Cl)c(O)c1C(=O)OCC2 C1C2C1C1OCC2C1c1nnsn1 C1=CC23CC4(CO2)CC(O3)C1=CO4 CC12C3CC4OC(=CC(O)C41)C32 O=C1CN2C3(CC13)C1NC1S2(=O)=O N=C1C2=NCCOC=CN1C(=S)N2 C=CC1=Nc2cc(N=N)[nH]c2C1=C OCC1(CC23OC4CC2C3O4)CN1 C1C2CC34COC(C3)OC(=NO4)C12 CC1OC2=C3C(C)C1C1CC(C2)C31 CC12C3=CC(=N)N=C3C(C1O)C2O C1CC2C1C1CC23CC(=NO3)N1 CC12CC3CC14CC(CN3)(CO4)N2 CC12COC1C13C(OCC1C3O)O2 CC1C2=NNC=NOCC3C2CC13 c1cc(CON=C2NCCO2)sn1 CC12C3CC(=O)C4(N3)C3C(CC41)N32 OC1C2C3C4OC15CN1C4C1C5C32 C=C1CN2NSC(=O)C2=NN2CC12 CC1C2(CC3C(O)C31C)NCC2=O c1ncn2c1CC1=C(CC3CC13)O2 CCCNC1=NC(OCCC)=CC1 C=C1OC(=O)C2C3(OC=NO3)C12C c1snc2c1C(C13CCCC1C3)O2 NCCc1ccc2c(=O)ccn-2[nH]1 C=C1CC23CC4C5CC1(O2)C(O3)C45 NC1CC23C=NN=C4C2C=CC41C3 NC12C3CC45CC(OC41)C(N5)C2N3 CC1NC23CCN4C1C(C1NC12)C43 NC12C(CO)C3C4(N)C1NC2C34N C1=CC2(N3C=NN=CN3)CCC2C1 NC1CC2C3C4N3CC23CCCC143 CC1=CN(c2nocc2Cl)NC1 NC12CC3C4NC5CC1NCC52C34 CC12CCC3COC4(C)C(CC1)C324 C1=NOC2C3C(C1)C1=CC2N2C1C32 CC12CC3C4C(=CC31)C2(O)CC4O CC1N2CC3C2C=C2C=CC31O2 CC1NC23CC=C4CC2C2C4C3C12 C=C1C2(C)CCC3C(=NOC13C)C2 CC1CC2N=C3C(=NSN3O)CC12 N#Cc1cncnc2nc(o1)C=C2 CN1CC2CC3=CCCC(C1)(O3)O2 O=c1cc2cc(o1)CC=NNC=C2 C1C2OC3CC4CC3(C1O4)C21CN1 C1OC2C3NC4C3C3=NNC1(C3)C42 CC=CC1=C(Cl)C2=NCC(=N)N2S1 NC1=C2C3=NOC4C2CC4C3(O)C1 C#CC1C2=CC3C4CC2(OC14)C3N C1C2OC3C4C1N4CC31CN=C2N1 OC1C2C3=CC4C2OC12COC3C42 C1C(C2CC2)=NNC2C3OC1OC23 C1CC12C1NC3C4C1C1OC1C4C32 CC1(C2N=Nc3c[nH]cc32)CC1 C=C1C2C3OC4(C)CC5C(C32)N5C14 C1COCCC2CCN=C(C1)NN2 NC1(CC23NC(C4CC42)C3O)CC1 OC12C=C3CC(CNCC1C2)CO3 C1=CC23CC4(C1)OC=CC2C4=NO3 S=C1NCCC2=NN3C(CN1)C3C2 OC1C2=CC3C=CC4(C2)C3C=CC14 CCC12C3=C4CC1NC2(C)C(C3)O4 C=CC(C=N)=C(C=O)NNC1CC1 NC12C3CC4C5N=C3N(O)C1C2C45 CN1CC23CCC4=C2C(NC4)C1=N3 C1=C2OC3C4CCC3N3C1CC3C24 CC1C2NC(=N)C3(C12)C(C#N)N3C O=C1ON=C2C3C=CC4C3C4N2O1 CC(N)=CC(N)=NC(C)C(N)=O CC1CC2(O)CC2N2N=NSC2=N1 C1=NN=C2CC34CNC5C(C2C53)C14 O=C1C2C3N2C2C(=O)C3(C=NO)C12 CC(O)=C1N=CN=C(C(C)C)C1=O CC12CC(CNNC(OC=O)=N1)C2 OC12CN3CC4(CC31)C1NC1CC24 CCc1nc(NC)c2n[nH]cnc1-2 CC12CN3C1CC1=CCC(C)(N2)C13 N#CC12CC(CC34CC3C=CC14)O2 CC12C3=C4CC(C3O)C1C(N)C2O4 CON1CCN2C(=CC=O)NN=C12 NC12C=CCC13NC1C4C3N4CC12 CC1OCC2N3NC=NC4(CC4)C123 CC1CN=C2C(=NON2O)C12CN2 NC12C3COC45CC(O)(CC34)C1C52 N=C1C=CC2N3C4CC2(N)C(N1)C43 CC12CCC3(C=C(NC3=N)OC1)N2 C1=CC23CNC4CNC(=NN2)C43O1 C1=CC2CC34C=CC(C1)(N3)C(C4)O2 O=C1CC23CC2(OC(NO)=N3)C1O CC=C1C2C3C4CN5C3C1C5C42 CN1C2C3=CC4(C)C(C2CC3N)C14 O=C1C2C(=O)C3C(NC4CNC42)C13 O=C1C=Nc2c3c(nc(=O)n21)OC3 C=C1C2=CC3OCC24NC2C1C2C34 C1CCC(=C(CC2CN2)C2CC2)C1 C1CNC23CCC2C2COC3(C1)O2 CC1=NC2=C(C1=CO)C(C)C1OC21 CC1C2CCC3OC=C(CC1C2)O3 CC12OCCC=CC=C3OC1CC32 C=c1c(C)c2c(n1N)=NN=CN2C CC1(C2=CNc3nsnc3N2)CC1 CC1N2CCN=CN2C2C(N)C21O CC1CC23CC=CC4=C2C=CC41O3 CC12CC3C=CC4(CC(=NO4)N1)C32 C#Cc1n[nH]cc1C=NCCN CC(N(C(N)=O)C1CC1)S(=O)(=O)O N=CN1C=CC2=CC3C4N3CCC241 CC1=CC2C3C4CN2C12C4C=CC32 CC(CNC12CC(C)N(C1)C2)=NN CC12C(N)C(=O)OC13C(N)=NOC32 COC1CN=C2C(=C(N)ON2O)C1 O=C1CC#CCN=C2C=CN1N=N2 NC1C2NC3C4OC(CO)(C=C24)C13 O=C1NN=C2NC=CC=CCN1O2 NC1=NC2C3CCC(N3)(C1=O)C2O CN1CC23CCC(ON=C2N1C)O3 C1=C2CC3C4CNC3(C1C4)C1OC21 CC12CC3=C(O1)C1(C)CC4C3N4C21 N=c1c2c([nH]c3c1OC3)C=CCC2 CC1C2=NC(=N)C3C(C)C(C1N)N23 C1=NOC23OC4(C=C2CC4)CC3=C1 OC12C3CNC4C3N3CC41NCC32 N=C1NC2=COC=C(C2)N=CNO1 NC1CCC2=CC3C4CC(O)C21N34 O=C1CC2C1C1C=C3CCC2(C3)C1 O=C1C2CC3OC=C4CCC1C43O2 CCC1C2OC3=C(C12)C1C(C3)N1C O=C1C(=O)C23CC1C(=CN2)C3=O OC1C2NC3CC4CC2C3(N4)C1O C1=C2OC3CC3N=C2N(C2CC2)S1 C1=COc2[nH]cc3c2ncn3NC1 O=CCC1CON=C2SNC(O)=C21 CN1C2C=C3C4(N)CC(C4)C31CC2 O=c1nccc2o[nH]c(=O)c(O)c1-2 C1OC2CC23C2NC4(CNC2C4)C13 CC1C2NC34C5CC(O5)C3C4C12O Cc1c2c(n3c1CC3=O)CCC2N C1CC23C4CC1C2C(=NN4)C1CC13 CC1=CNNc2c(C#N)sc(C)c21 N#CC1=C2CC(=NN2)C=CCCO1 C=C(C)N1C=NN2OC3CC3N=C21 NC1C2C=C(CC#CC3NC31)CO2 CC12CN3C1C1CC4C2OCC43C1 CC1=CC2(C=C3OC=CC=C13)CC2 NC12C3CC45CCN(C(CN4)C31)C52 CC1C2CC3N=C4NC31C(C)(O)C42 C1CC23CC4NC25CN(CC15)C4C3 CC12CC(CN3C=CNC3=N1)C2=O C=C1C2CC34OCC5C(C13)C2C54O c1cc2cncc3n2c1CC1CC31 CC1NC2C3=CCCC24CC31CO4 N#CCC=CC(C=N)=CNNC=N CC1(C23C4CNC2C3CN4)CC1N O=C1C=C2C(=C(O)C3CN23)NC1=O O=CC1=c2c(noc2=CO)OCC1 c1oc2nc1CCc1nc(ns1)O2 C=C1CC(n2nc3c(n2)NC3)CO1 CC12CC3C(N1)C1NC4CCC12C43 C1OC2C1C13CC1NCC3C21CO1 CC1OC2=NC13CC1C(C3)C1N2 CC1=C(N=NC=CNO)N=CC1=O OC1C2CC3C2C2NC4CC2CC413 CC12OC1C1C3(CNS1(=O)=O)CC32 CC1C2Cc3sc(c(O)c3Cl)C12 OC1C2=CC3NC4CCC3(NC2)C41 CCN1C2C3CC4(NCC3C14)C2N O=C1C2NCC3C14C=C(CC4)C23O C(=NCC1CO1)N=c1cconn1 C1CC23CNC4CC5OC42OC1C53 CC1N2CCC34CC5OC13CC5C24 CN1C2C3C=NOC4(COCC214)C3 C=CC12C3C4=CCC1C(C)(C4)CN32 CC1=NCC2C3C(N(C)N12)C3(C)O C=C1C2CC3C14CCOC4=CC23N C1=CC2Oc3coc(c32)C=NOC1 C1OC2OC3C4C1OC21COC4C31 C1CC2C3(C1)CCC1CC4CC4C123 NC1CCC2=CC3C4C5OC5C21N34 CC1OC2=C3C(C=C2)COC(=O)C31 CC12OC3=CC14NCC2NC4CC3 C1C2C3=NNCC34C1C1NC4C21 O=C1COC(=CNO)C=NC1CO C=C1C2=C3CCC2(O)C(=C)C1(N)C3 CC12CC34CC1OC3C(=N2)N=CN4 C#Cc1[nH]n2c(cc(=N)n2C)c1Cl C1=NC=C2C3CNC4C3C4C2ON1 CC1C2CN3OC(C=O)ON=C3C12 CCN1Cc2c(Cl)coc2C=CN1 C1ON=C2C3CC1NCC1C(N3)C21 OC12CC3C1N1CC34C=NOC24C1 CC1=CN=C2C=CC13CCC(C3)N2 O=C1OC2C3CC4CC(C3)C2C=C14 CC12C=C3CC14OCC2N1C3C14 OC12CC1C1NC3C4COC32C1C4 NC(=O)NC1=CC(=CO)C(=O)C=N1 N#CC12C3=CCC4(C3)NC(=N)C1C42 O=C1OC2(C3NC(=S)NC32)C2CN12 CC12C3NC(C#N)C1C1=CC3N2C1 CC1C2CC34CC3(NC(=O)O4)C1N2 CC12NC34CCC1(N)C3=CC1C4C12 C1=CN(C2=NNC3(CC2)CC3)OC1 C1=COCCCC2C3N=C(N1)NC23 C1=CC2=COC(C=C3C=C1OC3)O2 C1=C2CC3C1C1C=C2C2CC1N23 CC1CC2(O)C3CC4(CC3=CO4)C12 C1=COC(C2CN3C=COC3=N2)C1 CC12C3=COC4(C3)C(=NO)OC1C42 C=C1OCCCN2C=C(CC2)C1=O CC12C=CC=C3COC=C(C=C1)C32 CC12C=CC3NN=C4NC1C2OC43 O=C1C=C2CC13C1CC4C3C4(O)C21 C1=CC23C=C1C=C1C4C(CC12)C4C3 C=C1C2CC3C(N=C(NC)NN2)C13 C1=CC2C3C4C3N(C1)CC4C21CC1 C=C1C2=C3CCC4C3C1(CN)N4C2 C1CC23CCC4(COC(=N2)N4)C3O1 CC12C(C#N)C1C1C3C(C4CN41)C32 C1=C2C3OC4C2C2NC(C2NC1)C34 CC1C=C2C3C4C5CC3C1(C2C)N54 C#CC1(N)C2N=C3C(=CC4CN34)C21 N=C1Cc2c3c(n(O)c2N1)CCN3 CC1OC2=C3COC24CCC31OC4 C1NC23CC4CC25C1C1OC5C4C13 C1OC1CC12CNC3=NCC(N1)C32 CC1C2C(=O)C34OC3(CNC4=O)C12 O=C1N=C2C(=NCC3NC23)N=CO1 CN1CC23CCN(CC(=N1)N2C)C3 NC12COC3=NOCC4OCC1C342 C1CC23CC4CC25CC(N1)C3N4C5 OC1CC2C3C4CC5CC3C2C15N4 CC(=C1C2CC3CC(N2)C13)C(C)C OC1C=CC2=C3C(=CC2)CNCC31 O=C1CN2CC34CC2C1(C3)OCO4 CC1=C2C=CCN=C2C(NN)=NN1 CC1CC2C(C)C3C=C1C1C3C21C Oc1ccc(NC2C3OCOC23)o1 CC1=C2CC3OC2C2(O)C1C(N)C32 CC1C2C3=CC4OC(C12)C1(N)C3C41 NC12COC3(S(N)(=O)=O)CCC1C23 C=C1OCC2N1S(=O)(=O)C1OC21C CC1N2C3C=CC14CC(C32)C1CN14 O=C1ON=C2N(O)C3C4CC12C3O4 O=CC12C=C3C(OC4C3CCC41)O2 NC12CC3C4N3C3C=CC(C31)C42N CC12ON=CC=CC=C3CC1OC32 C1=CC2NC3CC4C(=CCC2C34)C1 C1=NC23CC2C2CCC3(OC2)ON1 CCC1=CNN=CC(C)N=C1CC NC12CC3C4CC5CN5C43C1(O)C2 CCCNc1ccnc[nH]ccn1 CC1=C2C3=CC(C)C2(O)C(O)C1C3 C1=CC23CC(=C1)C1(CC2CO1)C3 C=CC1(C)C2C3C4C(C2N3CC)N41 NCC(=NO)C1=CNOCCN=C1 C#CC1NNC2=CC(=N)C=C2C1=O CN1CC2(C)N(NC3CC32O)C1=N C1=CC2OC3C4(CO4)C4CN4C23C1 CN=CN1N=Cc2oc(C)nc2O1 CC12C3NCC1N1C4C=C3C(C4)C12 O=CC1CC=CN2C=NC(=NN1)O2 N=c1c2c(Cl)ccn2[nH]n1CC=O C1=CC2C3=CCC24CCC2C1C3N24 C1CC23C4COC2C2C1NC3C2C4 C1=C2OCCCCCC3CC2NC13 OC=Cc1ccoc1C(=CO)CO NC1C=C2CNC(=NCC(N)C1)C2 O=C1NC2C1C1OC23OC2CC3C21 CN=NC1=C(NO)C2C=CC=C2N1 ON1c2ccsc2C2=NCCCN21 CC12COC3C1N2C12CC1CNC32 CC12CC3=C4C5NCC(C5N1C3)C42 O=CC12C3CC4(C=CC1N42)C=NN3 C=CC12OCC34C=C(O1)C(C3)NC42 OC1C2C3CC1N1C4C=C3OC4C21 C=C(C)N1C2=NOC3CC(C23)C1C CN1CCc2[nH]cc(C=N)c2C=N1 O=C1OC2=CC(CCNN=CN2)O1 Clc1c2n(c3onnc13)C=COC2 C#CC1=CN(CC)C=CN=C1NC C1#CC2(C=NOCC3CC3C1)CC2 C=C1CC2C3C2(C1)NC1C(O)C13C C1#CC2(CO2)C2OCC(=COC1)O2 OC1CC2OC3=C(C4CC(C3)C4)C12 CC=C1C=C2C(=N1)N=C1NNCC21 OC12C#CC3=CC(C=C3)OC(C1)C2 CN1C2C3=CC(=N)NC2C2(N)C3C12 NC(CC1C2C3OC3CN12)C1CN1 CC12OCC3=C4CC(O)(C(=O)C41)C32 CC1C2N3CC34CCC3OC34C12O CC12CC3NN=C(N(N)C1)C32C C=CC1=CNN=CNS(=O)(=O)C1=N CC12CC34CCC(CN3)C4=CC1O2 C1=C2CNC3CC4C1CNC4(C2)C3 C=CCC1=C2OCC3CC(C1=O)N23 C1=C2C(C3OCC13)N1CC1C21CC1 NC12C=C3C(C1)C1OCC4C1C3C42 NC1C2C3C4=CC2(O)C1C1C4NC31 N=C1OCCNNc2ccc1cn2 CC12COC3CC4CC(C1)OC32O4 CNC1CC(N)=NOC(=O)C(N)C1 C=c1c2ncn1C=NN=CC(C)N=2 C1COC(c2onc3c2CN3)=NO1 ClC1=CNN2C1=NC1COC3CC132 CC1=C2C3CC4CC(C24)C1N1CC31 O=S1(=O)CNC2C3=CNSC3=NC21 CC12OCC34OC(=CC13)C(N)C4O2 C1=CC23CC4(CC1)OC2C1C(N3)C14 NC1CCC#CC2C3CC(=NN23)C1 C1=C(C2CO2)NN2CC3(CC3)N=C12 C1=NSC2=NCc3oncc3CN12 CC12CNC3(C)C=C1C1C(C2)OC13 CC12CC34C(=O)CC3CC=C4C1O2 O=c1c(O)c[nH]cc1C(=CO)CO O=c1ncc2ncc3n2c1=COC3 CC12CC(CC3C4CC4C4NC341)N2 CC12CC(=O)C3=C4C5CC(C5C31)C42 N=CN1C2C3C=CC4(N3)C2C=CC14 CC1=CNC2=CC(C)(O)CN2C1=N CCN1C2=CNC1=NOC=NOC2 C1=C2CC3C1C1CCC2(C2CN2)N13 c1onc2c1C13CC1(C2)NC1CC13 C1=C2CCC3(C2)CC2C4OC1C3C24 NC1C2OC3C4CC5(CCN4C35)C12 CC12CC3=C(COC(C)(C=C3)O1)C2 C=C1C=c2[nH]cnc(=NN)c2=C1N COC(CC1C2CC3C(C2)C13)=NO C=C1CN2N=C1CC=NNCC2=N C1=CC2=NC3(CC3)C3CN3N2S1 C=C1CN=C2C=C3CNC3=CN12 C1=CCC2C3CC4(C=C1)CC2N3C4 ONc1cc(-c2occc2Cl)on1 CC1(O)C2OC3OC2C2=NC31CN2 CC1C2=CC3(N)C1C(C)C1(C)C2C31 CC1=CC2NC13COC21OCC=C31 CC1CCOC(C(C=O)=CNO)=N1 NNC=Cc1nc2c(N)scc2o1 C1=CN=C2CCC(=NN2)COCC1 COC(C=N)=C1NC(=O)C=C1C=O C=CC(C)C(NO)=C(C)C=NCC Cn1c2c(sc1=O)C(=CNO)N=C2 C=C(C)C1CCNC2=CNSC2=N1 C=Nn1c2c(c3nncn31)C=CC2 C=C1CNNC2=C(C)C=NC(C)C12 CC12C3=CC4OC1(CCC42)CNC3 C1CC23CCN4C(CNNC1=N2)C43 C#CC1=C2N(C=NN2C=O)CCO1 C1CC2CC3(N1)C1CC4C1CC3N24 CC1(N)C2N3CC3C34NC3COC214 C1=C2COC3C4OCCC(CO1)C243 Cc1c(N=c2nco[nH]2)ccn1C CC12CC34CCC(C3)N3CC34C1N2 C=C(CO)c1n[nH]c(C)c1C=NC Cc1c2c(=NN)cn[nH]c2cn1C N#CC#CCn1c(C=N)c[nH]c1=O CC1=CC2CC(Cc3nnn1n3)O2 OC1C=CC2OC3C4=CC2(C=C4)C13 C1C2=NOCC3(CN1CC1NC13)O2 CC1=C2C3CC(N)C24C=CC3(C1)O4 C=C1N=CN=C2C=CC(N2)C2NC12 CN=CN=CC1=CC(C)=CNNC1 OC1C2=CCC3C2NCCC2C1N32 C=C1C(=N)C(C=CCO)=CNC1=O CC1C2C(=O)C3OC4C(=O)C31NC42 O=C1NOc2cc3c(nc2N1)CO3 OC1C=C2C3CC(CC24OC4C1)O3 C(CC1CC1)=NNc1cnccn1 C#CCc1nncc[nH]ncc1C C=NNc1nc2c(o1)C(=CO)N=C2 CC1C2C3=CC4(C=C3)C2CC1N4C C1=C2CC34CC1C1CC2C(CC13)C4 CC1N2C3C4=NN(C)C(C32)C1(O)C4 COC=C1C2C3=CC1N1CC(C3)C21 C(=C1c2nnoc2C2OC12)C1CO1 CC(N)C12C=C3C(C1)NC1CC2C31 Nc1ccoc(=Nc2ccns2)n1 C=C1C2CC3CCN4CCC(C2)C134 Nn1ncc(O)c2nccc-2c1=O CC12CC3N1C1(C)C4C2CC3(N)C41 CC12OCCC=COC3=NOC1C32 CC12C3NC4CCC15CN(CC45)C32 C#CC1C2NC3CN=C(N1C)C32O CN1C2C3=CC4CC(CO3)(CO4)C21 OCC1=c2ccc(o2)=CNC=NC1 CC1N=C2NCC3CC4OCC31C24 Cc1c(C#N)[nH]c(C(O)=CO)c1Cl C1=NN=C2ONC3=C2C1COC3 OC1C2C#CC3=COC(CCC12)C3 C1=CC23CC=C(O2)C2(CC1CN2)C3 CON1NC(N)=C2C1=NC1COC21 OC1C2OC34CC5CC13C=C2C5O4 C=NN=C1NC2C3CC4=C1C2C3N4 CNC12C=C3CC4OC1(C)C4C3=C2 CONC(=O)C=C1NC=CC(=N)O1 CC=C(NCC)c1cnncc1Cl O=CC1C2OCC3C4(CO4)COC123 C1=CC23CC4N=C(NCC2NC14)O3 OC1C2C=C3CCC(=CCC1C2)C3 C1=CC23CC2N=C2NN=CN2N3C1 C1=CC=C2C3CCN3N=CN2C=C1 CC12C3CNCC(c4ccnn41)C32 CC12C=CC3=CC14CC(OC4C3)O2 CN1Oc2csc(O)c2N=CC1=O O=C1C=CC23NC4C5C2OCC13C45 C#CC1=C2C(=NNC2CO)N(N)O1 NC12C3=C(CC4OC34)C3CC1CC32 C#CC12CS(=O)(=O)N1NC=CC2=N Oc1cc2c3c(cccc3c1)CN2 OC1=C2C=CCNCCN=C(N1)S2 CC12CNC3C4(C=CC(N4)C31N)C2 CC1C23CCOC14CC(N2)C1C3C14 CC1CCN=C2C(O)=CC=NC=C21 CC1(CN2C(=O)CN(O)C2=S)CC1 C=CC1CC2C3=NC4C(N3)C2(O)C14 CN1CC2OC3C2N2C4CC2C31C4 NC1CN2C=NC3=NCCNC3=C12 C1=CC2CCC3NC4C=C(O1)C23C4 O=C1C2NCC3=COC4C2CCC134 C=C1C2=CC3N4C2C(O)CC4C13C CCC(Cn1cc2c(c1)NC2)NC CC1(C2=C3C=NN=C3C(=N)N2)CO1 CC1=C2NOC(=O)NC2=CCN=C1 C1=C2CCC3=C(C2NC1)C1CC1O3 C=C1C2C=C3COC4(C2)CC1CC34 NC12C3CC4C1N4C3C2OCCO CC1(C)C=C2C3OC4C2CCC41O3 NN1C=C2CCON=C2O1 O=C1C23C=CC14CCC(=CC2)C4C3 OCC1C2CN2N=C2NC(O)=CN21 OC12C=CC=NNC=CC1=NCC2 CC(=O)N1NC2C3=NOC2C2C3C21 CN1CC23ON=C(C4C1C42)C3O NC12C3=CC4(CO)C=C3CC1NC42 OC1CON2C1=CN1C=CCN=C12 CCC1C2C3=C(C(=O)C=N3)C(C)N12 CC(CNC(C)CC(C)=NO)=NN NC1C2C3C1C1C4N3CC2C14O C#Cc1c(OC)csc1C(O)=CO C1=CC23OC=CC2C2(C=CC3O2)C1 CC1=C(C=O)C23CN=C(C1C2)N3O CC1NCC2=CCOc3nnc1n32 C=C1CCCON2NN=CC2=NC1 O=C1NN2C(=NC3C(O)CCC32)S1 OC1CC2C=C3C4CN(C4)C31CN2 CC1C(C)C12C1C3C4CC(N42)C31N O=C1CC2C3NCC4(CNN=C34)N12 CC1=CC(=O)C=CC1=C(C)NO Cc1c(NO)csc1C=CNN C1CN2CC3CC4ON=C(O1)C42C3 CN1C2CC(N)=NC3CC1C2C3=O CC#Cc1c(C)on2c(=S)[nH]nc12 C1#CC2(CCCNC3CC13)CCO2 C1=CC23CCCC1C1=C2OC(C3)O1 CC1=C2CC(=O)C(C)=C2C=NN1 C#CC12CN3C4C5OC(C41)C2(N)C53 C=C1C=CC2=C3C(=NOC13)OC=C2 C1COC2=C(CNc3[nH]nnc32)O1 C=CC1C2C3C(=NN2C)NN(C)C13 C=C1C2OC3C4=CC(C)CC14OC23 C1=C2CC3C4CCC5NC3(C2)C1C54 N#CC1CC2C3=NC4CC4N3OC12 C=C1C2C3C4C1C4N(N=CC#N)C23 NC=C1CN2CC2C(=CN)C1=NN C=CC(=O)c1c2o[nH]cc-2[nH]c1=O CC1C23C=C(CCC2)C2C(N3)C21O C=CC1=CNC(=O)NC=C1N=O CN1CC2(O)C3NC4C(=COC42)C31 CC1=CC2=NC=CCCCN(C1)N2 CC(C1=NOC(C)ON1)=C(N)C#N CNc1nn2cc(O)c(=O)c-2c[nH]1 C1=CC2=NOC3C=CCC34NC24C1 OC=CC=C1N=Cc2nocc21 CC1=C2N=C(CC2=O)NOCC#C1 O=C1C=CC2(Cn3cc(O)nc32)O1 NN1C=C2C(=NOCC2C2CC2)O1 C#CC1C(=O)C(C=N)=CNN1C=O CCC12CCC3CNC4CCN1C342 CC1=C2CNC3C(C)N(C1C#N)C23 N=C1NC2=CC1C#CC1OC1C#C2 CC12CC34ON=C(CC1C2C3O)O4 C1=CCC2OCC3=CC(C=C32)NC1 OC12C=C3C4CCC3C(C4)(C1)NC2 C=CC12CC3(C#N)CC1C(=NN2)N3 NC12CC3CC4(C5CC5)NC3C1C24 O=S1(=O)C2CN3CC4(C2)NCC3C41 O=C1CC23CC(=CN1)OC(CN2)C3 NC12C3CCC14NCC2(O)C1C4N13 C1#CCCOC2C3NCC(=C1)OC32 CC12OC13C1CC(C1)C3NNC2=O C1=CC2=NC3CC3N2OC=N1 C#CC12CC1n1c(c[nH]c1=N)N=N2 C=C1OC=C2CON=C3ON=C1N23 C=CC(=C)C1=NON=C2CON=C21 CC1C2=NN=CC=C(N)CN1C=C2 CC1=C(c2cccs2)OCON1 CC1CC2CN(O)C3=NN4CC4C312 C#Cc1nc2cn(O)sc-2nc1=N CC1C2n3[nH]c(=NO)nc3OC12C CC=NN=c1[nH]cc2n1CC=C2N OC12C3NCC1C2N=C1N=CC=C13 C=C1CC2C3CC4C(C1=C(C)O3)N24 C=C1C2=CC3OC4(C=CC3C14O)O2 CC1CNC2=NCC(=CC3OC13)N2 CC1C2=C3CNC4C(O3)C(C2N)C14 C1=C2C3COC2C(CCCCO3)O1 OC1C23OCCC(O2)C2CC2C13O C=C1CC=C(C(C(N)=O)N2CC2)O1 N=C1N=C2C#CCC3CC3CC1=N2 CC1=CON2C(=CCO)C(C)N=C12 CN1N=C2C3CC4C3C3C1C3C24O N=c1c(N2C3C=CC2C3)con1O O=CCC1C2ON=C3C2C1N1CC31 CN1C=C2OC1=CC=NN=CC2=O OCC1CNC(c2cnoc2)=C1O NCC1C2OC3C4C5C(O2)C5N1C34 C1=NOC23CN4C(CN1)C2C4CO3 C1=C2CCN3CC(C3)OC(=C1)C2 O=C1C2C3NC4C2C2COC4(C2)C13 COC1C=C2C3C1OC3C1(C)OC21 CC1=C2C3CC4CC1C(C2O)C4N3 CC1C2=CC3OC4CC31C(C2)C4O NC1C2C3C4C5C=NOC4(CN53)C12 NC1CC2CC3C4C5CCC2(C53)C14 CC12C3CC4=CC(C1C4)C2C(=O)O3 NCC1=CON2NC3CC3ON=C12 CCCN1SN2CC(=O)N=C2C1=O CC1C=Nn2c3c(c(=O)n21)OCC3 OCC(CO)C(O)=Cc1ccco1 NC1C2CC34C=C(NC=N3)C2(O)C14 OC1CCN2C(=S)N(O)CCN2C1 CN1CC2=C3CNC(=S)N3OC2=N1 CN1CC2CC23N1C=NOC31CC1 CC1=C2CC=Nn3nnc(c32)CO1 C1=CC23CC1(CC1OC12)N=CNN3 O=CC=c1[nH]c(C(=O)O)cc1=CO CNC1CNc2[nH]c(C)c(N=N)c21 CC12C3NC4CC(=CC(N)C41O)C32 C#Cc1c(=O)[nH]n2c(=N)cnoc12 CC1=CCCCNC2(C#C1)CNC2 C1=CC2NC1C2N=C1NOC=NO1 NC12C3NCC45CC3OC(O4)C1C52 CC12C=CC3(C#N)COC13C=CC2 CC1CC2C=C3OC4C1N2C4C3N CC1=NC2C(C)NCC2C(NO)=C1 C1#CC2NCCN=C2C=CNNC1 NC1C2C3C=CC4=CC(C=C4)(N3)C12 ONC1=Cc2c(sc3c2OCC3)C1 CNC1C2NC3C1C1OC3(C)C=C21 CC1CCC12C1NC3C(OC32)C1=O N#CC(C1=CCCO1)=C1NN=CO1 OC1CC2C3C4CC25N=CNC15C43 OC1C2CC=NN=C3CC(=CN3)C12 C1OC2C3CC1C21CC2(CC2)C3N1 NC1C2OCON3CCNN=C3C12 C1=C2COCC34CC2N2C(CC23)C14 C=CC(O)=C1N=CN(C(=C)C)C1=O C=C1C2=CC3C4C5NC1(C)C5C2N34 C1=CC2=CC=C3COCOC(=C23)C1 CCN1CC2=CCC(COC=N1)O2 CCC12C3C4C(C)C1C(C)(C2O)N43 CCOC1=C2CNN=C2N(NC)S1 CC1NC23CC(CC24NC14)OC3=O C1=CC2CC3OC(C=C13)CCCN2 O=c1c2cc[nH]c2n2n1OCO2 C=C1CN2CC3(O)C4C5OC13C2C54 C1=C2CC34C1OCC3OC1C2CC14 C1=CN2CC3CC(C3)C23CON=C13 C1=C2C(=NC3CCCOC23)N=NN1 CC12N=C3NCC14OC3C1C2OC14 CC1OC2C3=NC=CC=NC3=NC12 NC1=NC(NO)=NC(=O)CCC=C1 C1=C2OC3C1CN1C3COC3C2C31 CC1=CC2C3C4C5OC2C1(C3N)C54 OC12C3=CC4(CC=CC3)CC1NC42 O=C1OCC2=C3C(C=CC13)ON=C2 C=NOCC=C(O)c1c[nH]sc1=O N=C1C(CO)=Cc2[nH]oc(=NN)c21 CC1CNC1C1=C2NNCC2N=C1 CCNc1nnc(N(C)O)cc1O CC1=C2CC3(C=CC4C2C(O)C43)C1 C1=CN2C=NN=CC(=C2)NC=NC1 O=CCN=C1NC(C=O)=CN=CO1 CC12CC3NC4=NC3(C1)C(C)(C2)O4 C1=NN=C2CC=C3C2=COC3OC1 C1=COCC2NN=C3C(C1)CCC32 C=CC12CCC34C=C(C)C(=C3)C1C42 NC12C3=C(OCC3)C3(O)C1CCC23 CNC=C1C2(C=O)CC(N2)S1(=O)=O COC1(c2cn3cnnc3[nH]2)CC1 O=C1N=C2C#CCC#CC(O)C1=C2 C1=CC23C=CCN(CC(=NC1)N2)C3 CC(=CCCN=CC=CNO)CO CC1(N)Cc2[nH]c(N)c(O)c(=N)c21 C=CC12OC3C4C=CC3(O1)C1C2N41 ON1C2=NC3(CNC4C1CC43)CO2 CC12C3OC3C34COCC31C2CN4 OC12C3CC4OC41CC=NNC32 O=C1C2C3=CCC24NC1C3(O)C4O ONc1cc(N2C3C=CC2C3)on1 C#CCONC=C1C(=N)CCC1=O CC1OC12C1C3CN1C1C3(O)C12O C1C2c3snnc3C3C1C2C1CN13 Cn1c(NO)nc2cc[nH]c(=O)c21 C#CC(=CC(OC=C)ON=C)CC NN1OC2=NC1=NCC=CC=CC2 COC12CC3CC(=NO1)C1CN3C12 C=C1C2CC3(C=CN=C(C3)N2)C1O N=C1CC=C2C3CC(CN2C=N1)N3 O=CC1CC23C(=CCN12)C1CC3N1 NC1CC=C2C3(N)C=CC21ON=C3 CN1CCN2C=NC(=NC(=O)C1)O2 OC1CC2CC(CC3=CC1C=C3)C2 C#CC1C2=C(C)C3C1C1CNC2C13 NCC1=C2C3=CC4C1C4C1C(O3)C21 C1=NN=C2CC3=C(C2O1)C1CC1C3 CC1(C)CC2=CON(N)C2=N1 CC1C2=C3C=CC2(O)C(=O)C1(C)O3 CC12C=C3OC1(C)C1NNC3=NC12 COC12CC3C(C=C(C)C4C1N34)O2 N=C(C=COC1C2OCOC12)NO N=C1N2C(CCC3CN32)C2CC12N NC1C2CC3=C(C=C4CCCC43)C12 OC12CC3=COC4(CNC1C34O)C2 CC12NC3C4NC(C)(C1C34)C2(C)C CC1(C)C#CCN=C2NC(=NO2)N1 CC1(C)C=CC(=O)C=C2C=CNN21 CNc1c[nH]c(C(O)=C(C)O)c1O CC1C2C3C4(C)CN2C1C3(C#N)N4 O=C1C2C3CC2C24OC=C(OC12)C34 CC1C2(O)C=C3CC=CC1(OC2)O3 CC1=C2NC(=NOCCC3CC23)S1 C=C1C2=CC34CC1C(CN3)C4C=C2 C=c1c(=N)[nH]c2c3c(nn12)C(=O)O3 C1=C2C=C(C3CC3CCC1)C1NC21 OC12C3NC4CC3C3(CO3)C1(O)C42 O=c1nc2nc(o1)C=CC=NN=C2 CN1C=CCc2snc(c2N)N=C1 CC12CC1CNCC1CCC(=N1)N2 CC1C=C2C3CC(O1)(C2N)C1CN31 O=C1OC2C=C3CC4CCC2C14O3 C=C1OC23OC4C1C2OC1C3C41O O=S1(=O)CC2(O)CC3C=C(O1)C2C3 CC1C2N=C3N(NCCC3(C)C)C12 C=C1CC23CC=C(C1C2=C)N3C=N CC1=NN=C2C(C)N3CC2C1(C)C3 OC1C2OC34C5CC(C5)C3OC4C12 CC1=C2NC3CN4C2C4C3CC1=O C=C1CC2C3=CC1(C=C3)C2=NO N=C1NC2=C(CO1)C(=O)C(=CN)N2 C1=CC2(C3=NC4CC4N3)NCC2C1 Nc1cc2c3c(ccn3c1)CON2 Nc1cc2c(o1)C(O)=COCON2 CN=C1C=C(C2(N)CCC2)NNC1 OCCCC12CC3C4C(C5C1N35)N42 CC1=NN=C2C=C(NO2)C(C)CC1 CC12OCC=C3OC4C(C=C31)OC42 CC=C1CC2=C3CC4C1C2C1C3C41 OC12CC(NCC3CO3)=NC(C1)C2 CC12CC(CN1)c1sc2c(O)c1O CC1=CC23CC(C(O1)O2)C1NCC13 CC1C2=CC3C4C=C2C(N)CN4C13 C1=CC23NC24CC=CC4CC3OC1 CC12NN=C3C=C(N)C(C)(C1=O)C32 CC1C(=O)ONC2=CC=NC23CC13 CC12N=C3NC1C1C4CN1C3C42O CC1NC2C3C=C4C(O)C3C2C41O C1=NNC2CC34NC2C=C3OCC14 CC12CCC13C(=NO2)C1(N)CC3C1 CC12CC13C(=NC1CC13)N(N)C2=O C1=NC=NN2C(=NC3CC2C3)O1 CC1Cc2c(on3c(=O)onc23)O1 N#CC1CCC=C2CNN(C=N1)C2 CON=c1sn2ccccn2c1=O NN=C1N=C2C=CC=CC=C2NN1 O=C1CC2=CN=C3N=CNC1CC23 CC12C=CCC1C1(OC=NO1)C2O Cc1c2noc1C1CC(C1)OC=C2 CNc1cc(Cl)c2c(Cl)c1CC2O N=C(CC1C2CN1C1COC21)NN C=C1C2=C3CCC4C3C1C4(O)C2=C CC1=CC2=CCNc3ncc(n32)C1 OC=C1N=Cc2c(CO)c[nH]c21 CN=C(NN1C=CCN=C1C)OC C1=C2COC34CCC2C(O3)C1OC4 C1C2C3OC2C2C4C3CC3C4N3C12 c1ncc(-c2c[nH]c3c[nH]nc23)o1 CC12CC3CC14C=CC(N32)S4(=O)=O C=C1C2CC3=CC(C=C3)(C1O)C2C CC(=CN1C2CC3CC3C21)C(N)=O c1snc2c1C1CC23COC(=N3)N1 CC1C2OC=C3C4C5CCN(C54)C312 CN1N=CC2(C3=NC=NC3=N)CC12 C#CC1CC2C=CC(=C2)C#CCN1 NC1c2cc3ncsc3n2S1(=O)=O O=Nc1c(CO)[nH]c2c(O)ccn12 C=CC1=C2C3C4CC(C)(O1)C2CN43 C1=C2CCC3(O2)OC2C1C1CC2C13 C1C2OC3C4C5C2C2NC2C5N1C34 O=C1C(=CO)N=CN1C=NCCO C=CC=C1C2C3C4CC(C=O)(C14)N23 O=C1Cc2c[nH]c(C(O)=CO)c2N1 O=CC1=C2C(=CNC2=NO)C=N1 NC12CC34CCC5OC1C(C53)C2C4 O=C1C2C3CC4C5COC4(C3)C2C15 CC1=C(N=NC(C)C)OC(C)ON1 C1=CC23CCC4(CC=C(O1)C2C4)N3 CC1OC2=C(NS(=O)(=O)NN=C2)O1 C1CNC23CN4CC4C2=NN=C3C1 CC1(O)C2N=C3NNC2C2(C)C3C12 CC1(C2C3C4NC4C2C2OC23)CO1 CC1OC23CC4(CC=C2C14N)CO3 CNn1[nH]c2nc(C)c(O)c-2c1C C1=C2CC3OCC(CNC3=N2)NC1 NC12C=CC=C3C4CCC31OC4C2 OC12C3CC4C5=CC1N(C5)C2C4O3 O=S1(=O)CC2(C3CC4C(C3)C42)C1O CC1N2C(=O)C(O)CN2C2CC21O C=CC(=O)C=C1N=NC(C=O)=CN1 CC12C3CC(CC14CN=CNN42)O3 C#CC1=C2NCCN=C2N(CC)S1 CCC12C3(O)CC4C3CC1(C)C42C O=C1CC2(COn3cc(O)nc32)N1 C1=C2COC3C4CCNC13C(C2)N4 CC=C1OC(C(N)=NC)OC1C=O NC1C=CC2=CSC(=NNCC1)O2 CC1C2NC3=NCC(N)=C3OC12 O=C1C23OCOC2C3CCS1(=O)=O C1=COCCN(Nc2cnon2)C1 C1=C2CC=C3CCC(CC1)OC3O2 C1=NC=C2CCC3CC4C2C4C3N1 O=C1C=CC23CCC4CC1(C=C42)C3 C=C1CC2(C3NC13)C(C1CN1)N2C COCC1CCN2N=NSC2=NC1 CC1=CC2(N)CC3=C1C1NC2C1O3 C1CNC2CC23NC2CNC3(C1)C2 C1=Cc2ccsc2C=NNC=NN1 N=C1CC2C3(N)CC4CC3CC42N1 CC1C=COC2(C#CC3CN13)CC2 CC12CC3C(=CC(=NO)N3N)N1C2 CCC1(C)C2C3=NOC=CC3=NN21 CC1N=C2CON=C3C=CC=C1N32 CC1C2=CCC34CCCC3C1C=C24 C1=C2CC3C1N1c4csnc4C2C31 C#CC12C=C3CC4(CC3CN4)C1N2 C1=CC2N3CC4C5CC(C3)C2(O1)C54 C=CC1C2C3CC4(NC3CC24)C1N C1=NC=NNC2=CC=NC3CC23N1 CC12OC3C4CC1(COC=C42)C3O OC1C2OC=C3C4C5CCC4N5C312 CC12OC3C4=NOC(C4)(C4CC41)C32 CC12CC3OC34CNCC14O2 NN1CC23CCN(CCN2C1=S)C3 CC(C)ON1OC=C2OC=NN=C21 NN1CC2(C=C3C=CCN=C31)CO2 C1=CC2CC23C1=NN=C1ON=CN13 CCC12C3C4C=CC1(C4)NCC32O NN1C(O)=CC=C2OC=CCN=C21 C=C1C2=CC(C#CC#CC1N)C=C2 C1=C2C3CC4C(COCC(C1)O3)C24 CC12CC1CC1=NNN(C=O)C1=N2 CC12NN=C3OC(C(=NO)C31)C2O COC=CC(=CNN)C1=NCCO1 C=C1C2=CC3C4CCC1(OC2)C34 CC1(C)C=CN2C=NC(N)=NC2=N1 CCC1C2N1N=C1C3C4CC12CN43 N=C1CC=CC2(C#CC3CN13)CO2 C1=CC2=C3C(CCC2=C1)OC1CC31 C#CC12CC3NN=C(N(C)C1)C32C CC1C=CN(C=N)NC=C(C=N)O1 N=Nc1c[nH]c(N2CCCC2=N)c1 N=C1C2NCC3(C(O)C=CC23)N1O CC1CC23C4CC5C(N4)C2C1CC53 NC12C(ONS1(=O)=O)C21C=CCC1 C#CC12C(C3C(C)C1(O)C3O)N2C C1=CCN2CCC(=NN=C1)CC=N2 NCC1CC(=C2C=COC2=O)NO1 C#CC1(C#C)C(=O)NNC1=CN=O CCN=C1CN2OC(CO)OC2=N1 c1cc2n(c1)NC13C4CC(C4)C1C23 CC12CN3CC4NC4C3=NC1(C)C2 CN=C1OC2(C3N=CNC32)C2CN12 C=CC12C(=O)NC3C4C=C1OC4C32 CC1=C2N(C(=O)OC2(C)C)N(C)C1 CC1C2N3CC3C3N(C)C=NOC132 CC12OC3C1CCC31CN=C2NO1 CC1CC23C=C4C1OC2C1C(C3)C41 C1#CCNN2C=CSC2=NCCC1 C1=CCC(c2[nH]nc3ncoc23)=C1 CC1N2CC3OC4OC31C(C)(C)C42 CNC1=NC2=C(CO1)C(=O)C(C)=N2 CC1=NOC2CC3C(=NO2)COC13 On1cc2c3c([nH]c2n1)OC=CO3 C1=C2OC3C1C1C2OC(C2CC2)C31 C1=CC2=NOC(O2)C2C=CC(C2)N1 C1=CC23COC4(CCCC1=C24)CO3 C1Cc2c(sc3c2OC2CC3C2)N1 C1=COC2=CCNc3coc(c32)C1 C1=C2C3CC4(CNC5C3C54)C2NC1 C=Cc1cc2n(CC#N)[nH]cc-2n1 CC1C2CN3CCC=CC#CC2C13 CC1C(N)C2=C3C=CC4C(C3)C2C14 CC1C2CC3(C4=NNCC4)NC3C12 OC1CC2CC(C2)On2nnc1n2 OC12C=NNC3=NC4CC31CC4C2 C1#CC2CC3C(=CCN23)CON=C1 NC1C2=NOC34OCC(C23)N2C1C24 OC12CN3C4C3C1C1=CCC=C1C42 CC1C=C(c2c[nH]c(N=O)c2)OC1 c1cc(Nc2n[nH]c3c2NC3)c[nH]1 CC12C3CC4=CC(N)(C1O)C2C4C3 C=NN1C2C3C2C2(O)CN3C3C1C32 CC1NC2Cc3c(sn(N)c3=N)C12 CC1CC2(C)CC3=C1C=CC3(C)C2 NCC1=NN=C2C=CN(C2)N=CC1 O=C1NC2=C3C(CC2O)C2CN2C13 NCc1cc2c(o1)ONC(CO)=C2 CC=C1C2=C(NC(=S)N1N)OCO2 ON=C1OC23CCC(CC24OC14)O3 NN=C1C2C(CN1N)C21OC=CO1 CC12OC3C4OC5(CC=CC35)C1C42 CC12C=CC34CC5CN3C1C5(O)C24 N=C1OCC23C(=N)NC4C(CN12)C43 CC1CC2=C(NN)C(C)(C)OC2=N1 C1COC23OC(C4NC42)C2C3N2C1 C1=CC23OC24C=COC4CC3OC1 CC#CC1=C(O)C2=NOCC2=CN1 OC=C1C=CC(C2C=CCC2)=N1 OCC1(c2con3cnnc23)CN1 CC1(N)C2C(O)C3C2C2=CC31C=C2 O=C1C(=NO)C23C=C(C(O)C2)C1C3 C1NC23CC1NC21CC(C3)C2CC21 OC1C2C3=CC4CC2C=CC41CC3 N#CCONC=C1C=C(N)NC1=O OC12C=COCCN=C3NOC1C32 N=C1NC2=C(CC1=CN)OCCO2 NC(=NC=CC=O)S(=O)(=O)C=NO N=Nc1nc(CO)[nH]c1C=CCO NC12C3CC45COCC3C4CC1C52 OC12CC34CC1NC3C2=CO4 O=CC#CC1CN2C3C2C2CC3N12 CC1=NC=Nc2c(sc(N)c2Cl)O1 CON1C(=N)SN2CC(C)CN=C21 C=C1C2=CC3C4CC2C2C(C34)C12N N#CC1=Nc2snc(N)c2C1=CN CC12C3CC4C3C=CC43CN1CC32 NC12CC3CN3C1(C1OC=NO1)C2 NN1C=C2C(=NNC2C=CCO)S1 OC12CC3NC1C1CC4CC31C2O4 N=CNNC=CC=C1C=NC=NC1 C=C(N1C=NN=CO1)N1CCC1=O O=C1C=CCCC2=NNC(=C1)CC2 CC1=C2C3CC4C2NCC4(O3)C1O CC1Cn2c(=O)c3cnsc3n2O1 CC12CC3OC34C3OC3CNC14C2 N#CC12COC1C(N)=NC2C(N)=O C=Cc1noc(C=C)c1C(O)=CO COC12CC3ON=C(C4CC41N)C32 NC1CC2OC(N(O)C3CC3)=NC12 C1=C2CC3OC1C3CCNCCO2 C1=CC2CC34CC(=CC3CC2N4)O1 O=C1NCC23CC2CC2(C=C13)CN2 N#Cc1ccnn(C(N)=S)cc[nH]1 CC1c2ccc(c(Cl)c2O)CC1O CC(=NO)c1nscc1C(N)=CO OC12C3CNC4(C3)C3CC1C3CC42 N=C1NC23C(O1)C2(O)C=CS3(=O)=O CC1C#CC2=CN(NC2)C(=N)CC1 CCC(C)=Cn1oc(=NO)c(=O)s1 C1#CCC2=NC(=NC=NO2)C=CC1 CC1=CC(=N)C(=C(C)C=O)CON1 CC1=COC2=C(C=NC(C)=NN2)C1 C=c1[nH]c2nc1CC=NOCON=2 CC1OCC(=Cc2cnoc2)NO1 OC1CC23CC1(O)CC(=NO2)NO3 OC12C=CC3C4=CCC31C1C(C2)C41 CCC1C2OC(=NO)C13CNC2=N3 C1CNC(C23COC(O2)C2CC23)=N1 C=C1C2C=CC13COC1C2(N)C13N CN1C(=O)C2NC3C2C1=NS3(=O)=O N#CC1CCN=C2C=CC(=N2)CO1 NC12C3CC(C4C=CC5C4C51)C2O3 N=c1c(=O)c(N)cn2n1C=CCO2 C=CC1CNC2C3OC=NN1C23C COCOC12C3=NCC1OC2CN3 C=CC12OC13C(CC2C)OC1CC13 C1=NNC23C=C(N1)C1CC2C1OC3 ON1CC23CCN=C1C(COC2)N3 COC1=CC2=NC(C)CON2N1N CNC12C3NC4C5(O)C3C5C1C42N ON1C2=NCC13C1OC=CC3C2O1 N=C1OC2=NOCC(N)C=CN1C2 CC12C=C3CC4CC1(C3)CC4CN2 CNCC12OC3=NOC1C1C(O2)C31 CCC12CC34CC5CC3N1C2C4N5 CC12C3NCCNC14CC4OC32 CN1NN=C2COCC3(CC3)N=C21 C=C(c1nc(N=O)c(C)[nH]1)C1CO1 OC1C2NCC34C(=CCC23)OCC14 C=CC1=C(c2cocc2C)CNN1 N=C1NC2=CC#CCOC=C(N1)O2 CC1CC23CCOC24C(CC3)C14N CN(C)C=NNC(=CC=N)CC#N C1=C2CNCC3C4CC4N4C(C1)C234 C#CC12CCC3(C1)NC=C2C3=O CC=CC1C2=C3OCC4C(C2)C1C34 C=C1C23CCC14OC=C(OC2)C4C3 C=C1CC(N=O)=CNN=C1CC=O Clc1ccn2nnc3nscc3c12 C#CC1=CC2(N)C3C(OS2(=O)=O)C13 C=NNC12CC3C4=C1C1OC4C1C32 C1=NNC2(C3OCOC32)C2(CC2)N1 CCONc1c(C)coc1N=O CC1=CC2ON=C3CC=CC(=C32)O1 NC1C2CC3C4N=C5NC2C1C5C34 C1=CN2OCOCC=NN=C1S2 CC1=CC2C(=O)C3=CC4C(O3)C1N24 C1=C2OCC34NC1C1CC3N1CC24 CCC1(C2=NOC=NC=C2)COC1 N=C1N=CC(=CC2C(N)C2N)C=N1 C1=C2OC3C4CC2C2CC3(CC24)O1 C=CC1(C(C(=C)OC)C(C)O)CC1 CN1CC23C=COC24OC(CC14)C3 C=C1C(O)CN2CCCS(=O)(=O)N12 CC1=C2OC3(O1)C(C)CNC1C2C13 O=CC1=C(N=O)OCC=CCNN1 C1=NNC2C1C1=CC3CC2C2C1C32 CC=CN=CNNC=CC(=N)CO CC12CC1N1C3C(=CC=O)NC2C31 c1cc(C2CCC3=C2CNC3)cs1 N=C1NC2=C(C(=O)C=N2)C(C=O)N1 C1CC2COC3CNC3CNC1=N2 C1=CC2NC3CC24CNC(=NC13)N4 Cn1cccc1C=C(CC#N)NO C#CC=C1NC=CC(=NC=NO)N1 N=C1NC(C=CN)=NC2CNC=C12 C=C1OC2C(C)(C)C3ON=C1C32O CC12CN3C(=O)ON=CN3C1C2N CCON=c1cc2cc(O)sn2s1 C1CNC(C2=NOCCC23CN3)=N1 NCC12C=C3C(=CC4CC1C34)O2 C=C1CC2CN=C(C2)NNC(C)=N1 C1=CC23C=CC4C(=N1)NC2CC4O3 N#CC=CNC1=CC(CO)C(=N)N1 CC(C)=C1OC=C2NC=CC(=O)N21 C1=CC23NC4C5C4C2NC1CNC53 O=C1CON2C=C(C=CN1)CC2=O CCC1=C2NN=COCC2N=N1 CC12C3=COC4(CC1(O)CC34)C2N C=C(CON1CCN(N)C1=S)OC CC1=C2C3OC4C2C(C)(O)C1(C)C34 CC1(Nc2nnn3c2CC3)CNC1 CC1=CN=C(C=C(N)N)ON=C1 CC1=C2OC=C3C4CC4NC32CO1 C1=C2OCOC34CCN(C5C2C53)C14 CC12C3CC(C=CC4OC1CC42)C3 O=CC12CC1N=C1C(O)=CON1N2 C=NN=C1C2=C(CC1N)NOC2 CN1OCC2(C3N=CNC32)S1(=O)=O C1=NOC2C1C1N=C3CCCN3C12 C1Cc2c(nn3c2N2CC3C2)CN1 C=C1OCC23OC24CON=C4CC13 C=C1NC=NNC2=CC(=O)C(=C2)O1 N=C1OC2CCN3C(C(=N)N1O)C23 CN=CC(=C(C)NN)C1CC(C)C1 CN1C2C3=CC4(C=CC2C14)OC=C3 C=C1C2C(N2C)C23C1C2C1CN3C1 C1=NN=C2CC34CC(=CO3)CC12C4 OCc1cccc2c1C(O)=CNO2 C#CC1CC(=N)N2C=C(O)OC2=N1 C=C1C2C=CC3(C2)C(=O)CN2CC123 C1#CCC2=NC(=NOC1)N=CO2 C1=NOC2CC23C2NC4CC13CC42 C1=C2CC3C4CC2C4C12CCOC32 NC12C3=NCC1CCNC2C1CN31 N#CC1C(=O)N=Cc2c(N)n[nH]c21 CC1=CNC(C2OC=CO2)CC1=O C1C2CC1C1NC3C4CC1(O2)OC43 C=C1N=Cc2c[nH]c(C3CNC3)c21 OC=C1OCc2c1oc1c2CC=C1 C1=CC23NC4=NOC1C2NCC3C4 NC(N)=C1C(C=O)=CC=NC1=NO N=c1c2c(Cl)csc2on1N1CC1 CCC1(C2=CNC3CC3C2=O)CO1 OCC=CC12CC1N1ON=CC1=N2 CC12OCC3(CC1=NN)OCC=C32 CC1(C#N)CNN2C(O)=COC2=N1 N=C1C2CC3(C=CC(CC3)N2)N1N CN=NC=Cc1c(CN)n[nH]c1C CC1C2NC3C4C5NC13C(C5N)C24 C1=C2C3=NNC24CCCC4C1CO3 CC1C2N1C1C=NOC13C(C)C23O NC=C1NC2=C(C1=O)C(C=O)OC2 C=CN1CC(C)=CN2CC=NN=C21 CC1=C2C3NC4C2(C)CC1(C)C34O CC1C2=C3OCC4C3C(C2N)C14N C1CC2=NN=C3CNCC34CC24N1 C=C1C2N3CCC14NC2(CO)CC34 N#CC1=C2NCC(=NNCC#C1)O2 CC1C(C)C23CC1(C=NO2)C=NO3 Cc1cc2nc3cc(O)[nH]n3n2c1 N=C1COC2(CCC2)CN=C(N)N1 CC1C=C2OC3C1N1C(C)CC2C31 CC1=NC2=CN(C)SC2=NC=N1 C=C1CN2C3C(=O)C14OC1C3C1C24 C1C2CC34CN5CC3C1C5C4CO2 C=CCC1NNC2=C1N=NC(C)C2 N=C(N)C=Cc1cn[nH]c1C=CN NC1CC2C(N=C3CC=CN32)C1O OC1=C2CCNCCCN=C1ON2 CC1=NC2=CN3CCN=C3C2N1 c1nc2n(n1)C(CC1=NOCO1)C2 CC1N(C=O)CC2N3C4CC12CC43 CC1=CC(N=N)=CNNC(=O)CC1 CC1CC12CC13C4CC4CC1C3O2 CC12C3CC45C=CC(NC1C3O4)C52 CC1=C2CCN=CNNC(=N1)C2O N=C1NC=C2C(=NC3CC2C3=O)O1 CC1(O)C2C3C2N2C(CC4CN43)C21 C#CC1N=C2N(C)C(N)=CN2C1=N C=C1NC2=NC1CC1OC1CON2 C1=CC23C=C1C1C4CC=C(C2)C4C13 C=C1CC23C=CC4(C)N(C2)C1C34N C#CC1CN2C3C=C1C1C(C3O)C12 C1=C2CC3CN3c3ncc(n32)OC1 NN1OC2=CC1=NC=NCC#CC2 C1=CC2=C3C(=NNC2)CNN=C3O1 C1=CCC2N(C=NC23COC3)N=C1 C=C1CC23CC14OC(CO2)C1C3C14 OC12C3=CC4(CC1C2C4)C1OC1C3 CC12OC3C4C5CCC(C5)(NC41)C32 COc1nc2c([nH]1)=C(N)C=CCN=2 C=C1C23CCN4C2C=CC14C(=O)C3 C1=CC2OC3C4=COC(C(C1)C4)C23 CC1CN2CC=CC3CC2C1=CO3 OCC1C2C#CC3CC(C3)N=CN21 O=C1CC2=C(NN=CCON=C2)N1 C=C1CN2CC=COCCC1=N2 N=C1NC23C=CC4(NN=C2C14)C3=O CC1C#CC=CC2(CC#C1)CN2 C=C1OCC2(CC#CC3OC13)CN2 CNNC(C=O)=C1C=C(N)OC1=O NC1C2CC3=NC(CN3)(C2)C1CO CC12C=C3C=CC(C)(C1)C3=C2C=O NC12CC=CC3N=C4NC3(CC41)C2 CC(CO)C1CN2C(O)=CSC2=N1 CC12CC1C(=N)N=C1NC(=O)SN12 CN1C(=O)C23C=CC(C2)NC1=NO3 C1=CC23COC24C=NN=C4OC3=C1 CC1C2C3NC4(C=COC24)C2C3N12 O=c1c2cc(O)c(O)cc2[nH]n1O CC12NC1C13COC1CON3C2=N NC12C3OCC14NC4C1CCN1C32 CC1CC23COC4C1=CC(CC42)C3 NC1=C(O)C2=NNC3(CC3)C2=NO1 CC1C2(C)C3NC2C2(O)C1(C)C32O CC12CN3C4C=C(C=NO1)C2(O)C43 O=C1NC2=C3C(C=C2)CC=CCC13 CC1(C=NN)Nc2nn3c(c21)CC3 CC12OC1C1C3NCC2(N2CC2)C31 CCC12C=NN=CC13C(CC2)N3C OC12CC34OC1C2C3=CC1CC4C1 NN=C1C2C3CCN2C3CCN1N O=C(OC12CN(C1)C1CC12)C1CO1 CC1=C2COC3C2C2C1CN2C3C C1C2NCC34ON=C(C5NC53)C2C14 CNC12CCC34C=C(OC13)C2N4C OC1=CON2CCC=NN=CN=C12 C1=NC2C=C(CC2)c2nc(cs2)N1 CCNC1C(=N)C=C(C)NOC1=O N=C1NC(OC2CC=NO2)=CC1N C1CC23CC4NN=C(OC2C4O1)O3 c1c[nH]c(-c2ncc3c(n2)NC3)n1 C=CC1C2CC34CC3(CC=NN4)C12 C1=C2CC3C4OC4CC34CC1CC24 CC(=N)C=C1CC(O)CC(=O)ON1 CN1CC2=C3C(=NOC2)CNCC31 CC1C2C3NC=NC4(CCNC24)C13 C=C1CC=COc2onc(c2Cl)N1 Cc1[nH]c(=N)n(C)c1C(N)=CCO C1=NC23C(CNC24CNC4)C3NN1 CC12CC3=C(C(=N)N=C3)C1CC2O OCC12CC3=CC4CC1(C=CC42)O3 NC12COC34CC1(CO3)CC(O)C42 C1CC2NCC3=C2C(CCO3)CO1 C1=C2CN3CC1(CO2)CC31COC1 C1=CC23COC4=CC(CO2)N(C3)C14 C1=C2OC3OCC(C1)C31CC2CO1 OC1CC2C3C4NCC35CC4N2C15 C1=CCC23CC(C(=CC1)O2)C1NC13 C1=C2CC3C4N3CC3OC3C24OC1 CC1(O)C(N)=NC2(C)C(=O)N(N)C12 CC12C3OCC(C(=O)C4CCN41)C32 O=C1C#CCCN2C=NC(=NN1)O2 C1=NOC23OC1C1=CC2OC2C1C23 O=Cc1ncc2c(C3CC3)[nH][nH]c1-2 CCN=C1NC(=O)C(=C(O)C=O)O1 OC12CCOc3nncc(c31)OC2 O=C1CNN=C2OC=C(O)C=C12 CC1NC2C3C=CC14NNC3=NC24 C1=CC2C3CC(CC24OC4CC1)N3 C1=C2CCC13NC(C2)C1CNN=C13 NC12C3=CC4(CCOC3)CC1C2N4 NCC1OCC2=C1NC=CNC2=O NC1CC2(C1)C1C3CCC1CN2C3 OC12CC3C1C1=CC3(COCC1)C2 C1=CC2=NNCc3ccn(c32)N1 OC12C=CC3=C(C=CC4OC1C34)C2 Cn1nnc(N2C3C=CC2C=C3)n1 NC1CC2OC13C=C(OC=O)C2O3 N=C1C=CNN=C2CCC(C1)C2=O CN1C2CN3CCC4C(C)(N)C43C21 CC12C=C3C(NO)=NC4C3CN1C42 CCCONC=C1N=NN=CC1=O O=C1C=CC2CN3C=NN=CN3C12 OC1CC2=NNCCCN(O)C1=N2 CC1=CC2CCC3C=CCC(=C32)C1 CC1CC23C(=NN1)N1CC1C2C3C CC1OC2CC=C1CNC=NCC2 CC12C3COC14CC=C(CN32)O4 CC1CC2COC34CC5C(C3)C5C124 NC1C2C3=CC1(CC2O)ON=C3 O=C1C2CN2C(=O)C2=CN=CON12 C1=NNC23C(C1)NC1C4C(NC12)C43 CC1C2OC3OC4CC1C3(C4)C2N CC12CC3CC4=C(CC1NC4)C32O NCC12C=CC(=C1)OCOCCO2 Oc1nc2n3c1OC=CC3COC2 CC1=C2NOC=NOC2C(C)N=N1 O=C1ON=CCN=C2OCC3C1N23 OC1CN2C3C1NN1C=NCC1C32 CC12C(O)C3OC=C(C(=N)N1O)C32 CC12CNC3C4(CO4)C(N)CC31N2 C=C1C=C2OC3OC=CC34OC24C1 C=C1CN=C2C(=CC(N)=NN2N)C1 CC1OC23CCOC14CC(CC24)O3 C1=C2C3CCC(C3)C23CNNC3=N1 CC1(C)C2CN2N=C2C=CN(N)N21 C=C1OC=C(O)c2c(N)n[nH]c21 CC12C=CC34OC(=CC3CNC14)C2 C1=C2C3CC3N3CCCNC1CC23 COC1=C2CC3CC4CNC13C4C2 C=CC1=C2OC=NN=C2N(C=N)S1 CCC1C2(C)NC(=O)C13CC2=CO3 CC12CC3(C#N)C=C1C(CO2)OC3 NC12C3CN4C(C5CO5)C(N3)C1C42 CC1C2NC3C1N1CC1(C(C)N)C23 CC12C3C(=CC=O)C4C(CCN41)C32 ON=c1nc2sc3c(n2[nH]1)C=CC3 CC12OCC3=NOC(C)(C4NC41)C32 CC12C3=CC(N)C4(C3)CC1NC42C CCC12N3CC4C(CC41O)C2(C)C3 CC1=C(O)C2=NC3COCC3N2S1 CC1=CC(=O)NC(=C(C)N=O)C1=O Clc1c(NC2CC2)sc2c1OCC2 CC1=C2CC(O1)C(=O)COC=CO2 C=C1C2CC3CC4(O2)C1CC3C4O OC12CC3(OC=C1O3)C1=CCNC12 CN1NC=NC=C(OC=O)C1CO C1=CCN(c2cc3scnc3[nH]2)C1 C1#CC2C3C=C(CC=CC1)CN23 Cc1ccn(C2=CC(=CO)N=C2)c1 CC12CC(N)(CC3=NCCN3O1)C2 CN(C)C1=CC(C=CN)=NN=CO1 C1=COC2=NN3C(=NC4CC43)C2C1 Cc1cc2ncc(=N)[nH]c(C)c-2n1 C1=COC(c2cc3c([nH]2)COC3)O1 CC1C(O)C2(C)C3C(C(=O)N2N)N13 N#CC1C2C3CC34CN=CN=C4N12 CN=NC=CC1=CNOC2(CC2)O1 C=C1C2(C)C3CC4(N)C2OCC14O3 CC#CC12OC3=COC1C1C(O2)C31 C=C1C2NC34CC2(C)C(=CC3N)C14 C#CCC12C3NN=C4OC3CN1C42 Cc1c2nsc1C(=O)OCCON2 CC1=CC2=C(N)ON(N)C2=NOC1 CC1CC2C=C3C4NC4C4C3C2C14 O=C1CC23CCC4C(C5CC52N1)N43 ON=C1CCN=CC=C2NOCC21 CC12C3OC4CC41C1OCOC1C32 C=C1CC2C3C4=CCOC(C23)C14N N=CN1OC23CC=C(O2)C1S3(=O)=O CC1=CC2OC34CC(NCC13)C2C4 CC12C=CC34NC5CC3C1C5C24 NC1CC23CC4OC1C2=C4C=NN3 C=C1C2=NNC3C(=O)C(C23)C1(C)O C1=NOC23CC4C(N4C2)C2(CO2)C13 CN1C2=CC(=O)C1=CN=CNOC2 OC12CCN3C(CC4OCC=C41)C32 C=COC1=NC(=C)c2c1[nH][nH]c2=O C=C1CC23OC2CN2CCC3(C2)O1 c1nscc1CN=C1NCCCO1 CC1C2C(N)=C3C(NO)=NNC3C12 CC1C2=CC3OCC4N(C2)C1C34C COC1=CS(=O)(=O)N(C)C1=C(C)O Oc1ccc2c(O)c1C(O)C=C2 CC12C=C3CCC14OC(OC34)C2O NC1=NCC2=CC(O)CC21C=O CN1C=COC23C=NN=C2ON=C13 CC12OCC3=CC4(OCCC41)OC32 C1=C2CCOC23CN2C1C2C31CN1 OC1CCC2C3C4CC(CNC123)O4 CCC1=CC(=O)C(=CO)C(C#N)=N1 CC12CC13CC1CCC3(CC1)CN2 CC1C23C=CC(N)C1(C)C(=C2)CN3 CC1C2=NOC(=O)C2=C(O)C1C OC12CC3NC4C1=CC1C(C2)N1C34 C1=NC23C=C(CN1)OC(COC2)C3 CC1C2C3C4CCCC14C1(CC1)N23 CC#CCN=c1[nH]c(C)c(N=N)o1 C1=Cc2cocc2N=C2ONN=C12 CCC1=NC(C(C)CC)C(NO)=C1 C1NCC23OC1C1C(O2)C1C31CN1 CN1C=NN=CNN2CCC=C1C2 CN(C=O)n1cncc1C(O)=CO C1=COC(=C2CC3C4CC2N3C4)C1 C1=CC2=Nc3cc[nH]c3C=CN2S1 CC1=C2C(=NO)C(N)=NC2CC1=O C1CC2C(CCN1)N1CCN2CC1 Cc1c(=O)occ2c(O)ccnc12 CC1(N=c2s[nH]cc2N)CNC1 Cn1cc2c(NO)c[nH]c(=O)c2c1 C1C2OC3CC4C3C2C1C41CNC1 N=C1C=C2N=CNS(=O)(=O)NC2=C1 CC12C=C3NC(NN)=NN=C3C1C2 c1nc2n(n1)C1=C(CN2)C2CC2C1 CC12NC3=NCC4(C3)C(O)C1NC42 CC12NC3C4C1C1NCC2(C1N)C34 N=C(CN1CC2NCCCC21)NN CC12C3C4NC5C4C4CC(C43)N1C52 CC1C2CN3C1C1(CCC3(C)C1)N2 CC12NN=C3C1NC1C2C(O)C31O C=CC12C3C(O)C4C(C(C#N)N41)C32 OC1C2=NOCC1CC=NNC=C2 C=CCC12C3C=C4C(N)C(O3)C1C42 CC1=CN(C)C2C(=N)N(C=N)N=C12 OC=C1C=NC(OC2CC2O)=N1 CNC12CCC34OC1C(=CC23)C4O CCCC(C)=C(O)c1cc(O)c[nH]1 CC(=O)NNC=C1C(=N)CNC1C C=C1NC2=NCCC3=CCC=C1N32 NC1=C2C=CC1=COCCNC2=O CC1(O)CN2CC13C1CCN3CC12 CC12CN3C4CC3C13CC(CO3)C42 C=C1C(C)C2=CC(=NN)N=C2N1N C=C1C2C3NC4=NNCC14CC32C CC1CC2CC23NCC2C(C)(N)C123 Oc1occ2oc3c(c12)NNC=C3 Clc1c2c(n3ncsc13)OC=CO2 C1=COC2=C3OCC(CO1)C3OC2 COC1=NC=C2C(=NNCC2N)O1 CC(=O)C12C=CC3C(C(N)=N1)C32C CC1=CNNC2C(CO)CC2N=N1 C1=CC23OCC4N(C1)C42C1CC3O1 N#CCC12C3C4NC5CN1C2C5C43 CCC1=C(C#N)N(C)C=C(C#N)N1 O=C1NC23CCC4C1C1C(C42)N1C3 C=CC=NN=c1c(C=N)c[nH]n1C C1=CCOC2=CCC3C(=C1)CC=C23 C=C1C2=C3OC1CC3(C)CC=C2C CCC1=NCC(NNCCNC)=C1 ON1C2=CN=CNCCC1=NOC2 CC(=O)C1NC=C2C(NO)=NCC21 O=C1N=CC(OC2=CNC(=O)C2)=N1 C1CCC23COC(OC2)C2C3N2C1 N=Cc1c[nH]n(C2C=COC2)c1=N ON=c1occ(N2C=CCN=C2)s1 C1#CC2=CC3C(C=CC=C1)N3CC2 NN=CCC1CC2OC(=O)N(N)C12 C=CN=C1CC2N(N1)C2(CN)CO Cc1csc(-c2[nH]nnc2NO)c1 N#CC1=CON2NC=C(O)C2=NC1 O=C1NC2CCC13OC1C=C2C3O1 NC12C=CC3=CCC(C31)C1CC12O C=c1oc2nsc(C)c2c1=CNO C=C1OC2=NC(=CO)C(C)=C2C1=O OCC1=CC2CNC3=NC1(CN3)C2 C1=NCC2C3OC4C(O3)C4N12 CC1CN2N=CN(C)N=CC#CC12 OC1CC2=CC3CC2CC2CN3C12 C#CC1=NOC2C(=O)CC3N1C23C CC1C2C3C2N2C4C1C4C1(N)C3C21 OCCN1CC23CCN4C(C1=N2)C43 O=C1NN2CC23C2C4CC13C(O)C42 CC1N=NC2=CNOCCOC1=C2 C#CC12COC34OC1C(CC23)C4O N=c1c2c(n3n1NCC=C3)CNC2 CC12OC3C4=CC(O)(C1O4)C3(C)O2 N=c1cc(CN)nc2cncc-2[nH]1 O=CN1CC23CC(=N1)C1C(C2)C1N3 O=C1OC2=NOC3CC(C3)CN1O2 OC1=COC2=NC=NC3CC3ON12 CC1CC2=CC(C)C3(N)CC1C=C23 OCC12C3=CC4(CC3)CNC1CN42 C#Cc1nc2c(o1)=C(NC=O)CN=2 CNC12C3=NN(C)C1C(=O)C2OC3 C#CC12C3C(N)C4C1C4(O)C3N2C O=S1(=O)CCCC23NC21C1CC3O1 CC1=CC23CCNC2C12CC3=NO2 CC1C=CN2OC(=NNC1)OC2=O O=C1C=CC2OC=C3C2NC2C1C32 NC12C3=NOC1C1=CCC2(CO3)O1 O=C1C(=CO)NC2=C1C1CC1O2 CC1CC2C3=CC1(NC=N3)C2(C)N NC1C2NC34C=CC=C2C3C1OC4 CC1=CC2(N)C3=CC4C1C4C2CO3 N#CC=C1OCc2[nH]c1c(O)c2Cl N#CC1=C2OCC3C4C(CN3C1)C24 CC1C2C3CNC4(C=NNC124)C3N CC12OCC=C3CC(O1)C(C#N)C32 C1=CC23CC2(C1)CC1C3=CC2NC21 N#CC12C3NCCC4C1C2C1C3N41 CCCOC12C3=NCC1CC2CN3 N=C1OCC(O)C1=C1N=CNC1=O C#CC12CCC34CC1C(CC3O)N24 CNC(=C(NC=O)C(C)=O)N1CC1 Nc1s[nH]c2nc(C=O)cc1-2 C=CC1CN=C2C(N)=NSN2OC1 Cc1cnnc2c1C1=CNNC1C2 CC1=CC2=C3C(C=CCC13)CC2C NC1C(N2CCCN2)=NC2CNC21 CC1C2NN=C(N3C4COCC43)C12 NCC#CC1=Cc2cnsc2ON1 Cc1oc(=NS(C)(=O)=O)nnc1O CC1C2=CC3CC4C2CC(=O)C4N31 CC(N)C(C)C=C1NC=CC(=O)N1 CN=C1Oc2snc(C)c2C1=CO NC12CC3=CC(O)(CCOC3C1)C2 C1=CC2=CC34COC(CN3C2)C4O1 C#CC(C)N1CC23CC2(C1)OCO3 C=CN(CC1(C2CO2)CO1)C(N)=S N=C1N=C2C(=N)NC=C2COCO1 CC1C2NCC13C1OC(C21)C31CN1 CC(=O)NOC=Cc1c[nH]nc1N C=C1Oc2c(c[nH]c2N=N)C1OC O=C1OCCCC2C3ON=C(O1)C23 CC1CCC=NN2C=C(N)NC2=N1 OCC1=C2CC3CC2N2C(C1)CC32 C1=CC23COC4C(=NO2)NOC3C14 C=C1C2C(O)C3N4C2C4C1S3(=O)=O O=C1CC(c2cc3ocnn3c2)O1 C1=CC2C3=C1CCC3c1cnnn12 C=C1N=C2NCCOCON1C2=N CC1=C(C)C=NNC2C(N)C2C#C1 C=C1CC2=CC=C3CCC(C1)NC32 OC1C2C=C3OC(C=CCN2)CC31 OC1CN(c2cc3c[nH]nc3[nH]2)C1 NC12c3nocc3OC13OCCC32 CC1=NOC2(C3=CC=NC3=N)CC12 CC1=Cc2c(ccn2C)OCON1 C=C1C2C3=CCC1(CC2(C)O)O3 CC12C3=COC1C=NN=C2OCC3 C#CC1=NCC(NNCCC#N)=C1 CC1CC2N=C3CC(O)C1(N3)C2O c1nscc1-c1onc2[nH]ncc12 N=c1cc2c(C=CCN)c[nH]n2o1 CC(O)C1C=C2C3=CC4C(C3)C2C14 C=C1C2OC3=CC14C(=O)NC2C4C3 C1=CC2(C3CN3)NCCNNC2=N1 CC1NNC(C#N)=Cc2cnoc21 C=C1C(=N)C=C(C)NNCC1=O CC12C=C3OC4C(N)C1C4C=C3O2 CCN1C(=O)c2c1nc(=N)oc2C O=C1OC23C=CC4C2NC1C1C3N41 C=CC(=Cc1c(C)coc1C)NO CC(=O)C1=CC2C3=CC4C(C3)C1C24 CNc1cccc2c1C1C(C)N1N2 CC1CC(C)(O)C=NNC=CC=N1 C#CC1C2OC3CC4C1C=C2C34C CNC1=NC2(C(N)=O)C(C1)C2OC C1CN(CC23CN4CC2NCC43)C1 C=C1C=Cn2nc([nH]c2=N)OCC1 CC1C2OC2(C)C=C2C=NC(=N)N21 C1=NNC2CC13C1CC2C2C1CC23 C=CC12CC1C1=C(C)NSC1=NO2 C=CC1=NN2N=CCN=C2C(C)=N1 CCC1=CC(=O)NC=NC1=CN=O NN1C2=CCC3CC23N=C1NO O=C1C2C3C4OCCC14C(=O)C23O CC1CN=CC(CC(=N)N)=C1NO OC(=Cc1cnoc1)c1ncsn1 N=CNNc1ccsc1C=CN CC12CCN=C(N3C=CCO3)N1C2 NC(=O)C1OCC2=C(CN=C2N)O1 CN1C2C3=CC4CC2CC41COC3 C#CC1=Cc2cocc2CCON1 O=NC1=CNN2CCC(=O)OC2=C1 CC1C(C=CNO)=NCC2CC1C2 CC12CONC1=C(O)c1ccoc12 c1cc2nc3n(c2s1)NCC31CO1 NC12C3=CCC4(O3)C(CO)CC1C42 O=CNC1=CC(=O)N=NC1=CO C=C1C=CCON=C2C(=O)ONN12 CN=C1C2=CCCC2=C2NC=NN12 C=C1CC2C3=CC(N)C2(O)C2C1C32 NC1C2C=CC34NCC(=CC23N)C14 CC(C)=CC1CNN2ON=CC2=N1 NC12C3OC4C(C31)C1(CCCN1)C42 CC1=NN2CC=CCON=C1O2 CC1CC23CC4CC(=NC1C2N4)N3 c1ncn2c1OC1=C(C2)C2CN2C1 C1#CCN=C2N=CN3C(CCC1)C23 CONc1cccc2c1C(O)=CC2 O=CC(O)=C1CCc2[nH]oc(=O)c21 NC1=NC23COC(C(=O)O)C2C3C1 N#Cc1cc(N)c(Cl)c(Cl)c(=N)c1 O=C(O)C1=C2CN=NC=C2NNC1 C1=CC23COC2C2OC3(C1)C1CC21 N#CCC1=Cc2[nH]c(c(O)c2Cl)C1 C1=NC(Cc2snc3c2OC3)CN1 CC1(C#N)ONC2=C(C=NC2)C1O CC12CC13C(CO2)NC(=NO)N3O C=Cc1cc(N(O)CC)ncc1O CN1C2(C)C3(C)CC(C)(N3)C12CN C=C1CN2C3CC2C12C(C)=CC=C32 Cc1n[nH]c(C2C=NN=C2)cc1=N CNC12CC3N=C4NNC3(C1)C4C2 N=c1c(O)cc(=O)[nH]c(CN)c1N C=C1CC2CC(O)CC3CCC1=C32 CC1C2OC3=CCC24OCC1(N)C34 CC1OC2CC3N4C5CC13C2(O)C54 C1CNC2CC3=C(C2)C2C(C1)C2C3 CC1C2=C3CC1C1OC(CC2O)C31 C=C1C(=C(C=O)OC)NCC1C=O C=C1C2C=CC=CC#CC(=N2)N1O CCC12C3C(C)OC(CS1(=O)=O)C32 OC1C=C2OC3=CCN4CC1C2C34 Nc1coc(CN=C2C=CC=N2)c1 C#CC12CC3(O)C=C1C(C=NN2)C3 CN1C(=O)N2CCCCCN=C1O2 C1=NC2=NNCC3OCC(=C23)CN1 CC1CC2C3CC4=NNCC2C41N3 OC1CN2CC23CC2C4CC13CC42 O=CC(c1c(O)s[nH]c1=O)C1CN1 C1=C2CNC(C1)CNC1CC(C1)O2 C=CCN1C(=C)NC(=N)N=CC1=O N#CC12CC3C4C(O)C=C1C4N3C2 CC12OC3C4=C1CCC4(CN)CC32 C=C1C2CN3C(CN=CN=CN2)C13 CCCC1C2CC1N1SN=NC1=N2 CC1=C2OC3C4CC3C13OCC2C43 NC1C2ON=CCC3OC=C(O3)C12 CC#CC(N=C1N=CC=N1)C(=N)N C1CC2C(=NN1)N=C1NCCNC12 CNC1=C2CC(C)CN=C2N=NN1 NC12C3CC(=CC4NC41)C1C2N1C3 O=C1C#CC#Cc2nc[nH]c2N=N1 C1C2OC34COC(OC3C12)C41CC1 C=C1C2CC3=COC1C1(C#N)C3N21 CC1=CCNN=C(C)N2C=C1CN2 C=C1CC(N=C(N)NC=N)CC1N OC12CCC1C1C3C4=NOC2(C4)C31 C#CCC12CC3=C(O1)C(N)(CO3)C2 CC12CC3C4CC3C1C4=CC2=NO CCN1OCC23CCC(N=C12)C3C O=CC12C=C3CC(CO3)(NC1)C2O C=C1OC2=C3CNC4C3C(C2)C14N C=CN(C1=NC(C)C(=C)N1)N(C)C NC1Cc2cn3[nH]c(=O)cc3cc21 CNC1=c2ccn(OC)c2=NNC1 CC1OC23C=CC(N)(C=NO2)C1=C3 C#CCC1(C)N=C2N=NNN2C1C Oc1c2n[nH]c1CCCCNN2 NC12CC3(OCC4C1CC43)C1CC12 CC1CC2C3=C1C=CC3C=CC2N CC1=C2NN=CN(C)C2(C)CN=C1 Cc1nc2oc1C1CC(CCC2)C1 CC1C2CN=C3C(=CON3O)OC12 CON1CC2C(N)=NC=CC2C1=O CC12CCOC3=CC4OC31OCC42 CN1OC(CO)(C2(O)CC2)OC1=N CC12CC3N=C(NO1)C2C3(N)CO C1=NCC2N(N1)C21CCNC1 CC(=N)C=C(NO)C1NC1(C)C=O CC1C#CC=C2CN(CCO2)N=C1 CC1=NC2(c3cnn(C)n3)CC2N1 C=C1C(=N)N=C(C(C)O)C=NC1=O CC1(CCO)C(=O)C2CC1C(N)=N2 CC12OC34ON=C1C3CC2C4CO CC12CC3C4=CC5CC3C5CC1C42 CN1NC2C3CCC4(CC1=NO4)C32 CN1CC2CCN=C(C2)NOC=N1 NC1CC2=CC3CC4C=C3C1(C2)N4 CC1N2CC=CN2C(=N)OC12CC2 CC1C2C=C3C4CC2N1C1C3CC41 CC1=CN2C=CCC(=N)NN=C1S2 CC1=C2C3=COC4C3OC1C4C2C N=C1NCC23OCC4(CC=C2C14)O3 C#CCON1OC=C2OC=NN=C21 OCC1=C2CC3C4CCC13N(C2)C4 C=C1CC23CC4OC2=COCC3C14 CC1=C(NN)C2(CCOC2)CN=N1 N=C1NC2CC3(CC2N(O)C3=N)O1 C=C1NC(=N)C(CC)=C2OC=NN12 NC12C3COCC14OC4C=NNC32 CCc1ncc2c[nH]c(=N)ccc1-2 C1=CC23CC4CN=C(N2)C1OC3C4 C=C1C2CC3OC4OC1C3(O2)C4N CC1OC2C(=O)C3OC1C(N)=NC23 C#CC12C3NC4C(C3C1(C)C=O)C42 NN=C1C=CC=c2[nH]cnc2=NC1 CC1=C2N=C(NO)C13CC(O)C2C3 C=C1C=CC#CC=C2C=CN1C2=O NCc1nc(CC2CNC=N2)c[nH]1 C1=CCC23CC4C(=C1)C2OCC4O3 C1=CC23CC4=CC2NC1C3NCC4 CC1=C(C)NNC(=N)CCNN=C1 C=C1CC2C3(O)CN4C3CCC24C1 C#CC12CC3(C(C)N)C(OCC13)O2 CC1OC23C=CC(=NO2)NC1C=C3 C1C2CN3CC3C3CC(=NO3)C1O2 C1=CC2C3=COC(C1)C21CCC3O1 CC1=CCN=C(N=c2cc[nH]s2)N1 NC12CC(O)C3NC1C1=NOC32O1 C=CN1C(NC)=CS(=O)(=O)C1=CO N=C1Cc2c(c(O)cn2C(=O)O)N1 C=Nn1cnc(C(=CNO)CC)c1 C=C1C2N3CC14CC1CN1C4C23C NC12C=NN=C3C1CC1(N)C3NC21 NC1COC1c1c[nH]cc1N=O CC1(N)C2=CCC3NC(C1N)C23C CC12C3NC1C1(O)C3=NNC3C1C32 CCC(N=C1CC2CN2N1)=C(C)C CN1CC23N=C(NC2=O)C1S3(=O)=O C1=CC2=NCCOn3ncc(c32)N1 NC1C2C3COC4(OCC=C4O3)C12 C=CC1(C2CC3=NCCN3O2)CO1 NC(=O)C1CC2C3ON=C(N)C23N1 CC12CC3=NNCCC3=C(N)C1C2 C1C2=C(CC3NC23)C2=C1C1CN1C2 C1=CC23CCC(N4C1C4C2)C31CC1 C#CC1=C2CC3(CC(=C)C2C3O)C1 C#CC1C2=CC3C1C1CNC2C31O CC1ON=C2CC=Cc3onc1c32 C1=C2C3OCC24CCCC4C1O3 CC1C2C3C(=O)C1(C)C2CN=C3N NC12C3C=CC1(C=C3)CC1CC2N1 O=C1CC2NC13C=CC1=C3C2C=C1 CC12CC3CC14CC1C2CCC31O4 N=C1NCCN2CC3=NNC1C3C2 OC1C2CC34C=COC1(C3)C1C4N21 S=C1NC2=NC=CC2N(C2CC2)N1 O=C1C2=CCC3C2N2CC2C2C1N32 N=C1CC2C3OC34C=CCC4N2N1 CCN1C=C2N=CN=CN=C2O1 C#CC1(C)C2C3=CC(N)C2N2C3C21 CC1=CN=C2CNNC=C2N1C=O NC12COC3OC1C1=CC32C=CC1 NC1c2cc(sn2)C=CC2CC1C2 C1=CC2CC3C4CC4C24OC1CC34 N=C1C=CNOC2CCN=C(N1)O2 O=C1C2CC3C1C2c1c(O)nnn13 CC1COC2=C(CC3CN23)C(=O)C1 CC1OC2=CC3NC1(C2C)C1NC31 CCC12C3=NCC1(N)CC2(C)NN3 Oc1cc2c(O)c(c1Cl)OC=CC2 CC12C3=CCC1C1C4CC2NC4C31 O=C1C2C(O)C3N2CC2=CC13C=C2 CC12OC3C(=O)C=C(C4C3C41)C2O C1CC23CNC4C(CNC(=N1)C42)O3 CC(=O)C1(C)C(=O)C2CC1C(N)=N2 C1=NCC23C4OC4C4(CC4)C2CN13 CC1=C(Cl)C2=NCC=CN2C(=N)O1 CC1OC2CC3C14CC=C(C4)C23N CC12C3CC=CC14COC4CCN32 C1ON=C2CC13CC2C1(COC1)C3 CC12C=CC3(C1)NC(=N2)ONC3=N CCN1C(=N)C(=O)C(=CO)NC1=O C1COC2OCC3C(=NNC23)NN1 ON1C=NCC2(O)CN=C(C2)N=C1 OC12C=CCON=CC(=C1)C=C2 CC1(CO)N=CC2=C(C=O)NNC21 OC12C=CC34NC1CC3=CCC42 CC1C(C2(CC3(C)CN3)CC2)N1C CC12CC3C(=O)C4C=C3C1(C)N4C2 NC12CCOCCC=C(C1)NC2=O CCC1(O)C2=CC3(C=C2)C=CC1O3 OC12C3CC4C3N3N=CCC3C1C42 C1OC2C3CC4=NOC2C(N4)C1N3 CC1(CO)C2C3C4=COC(C32)C41O CC1=NOc2oc(cc2Cl)C#CC1 CC1C2C3CC14NC2C3OCC4=O C#CC1=C2N=C(C#N)C=C2N=C1C NC1CC2NC1c1c[nH]c(N=O)c12 CC1C=CC2=CC3C1C1C=CC2N13 O=CC1=NN(C=O)C2CNNC=C12 OCCC1=CC(NO)=NC=CCN1 O=c1[nH]n(-n2cccc2)c(O)c1Cl CC12CC13C(CO2)NC(=NN)N3O O=C1N=C2CC3C(C4CC4)N3C2=N1 C=NN=C1C=C(NO)C(=O)C(C)=N1 S=C1NOC(C23CC=CC2O3)ON1 NC12CCC3NC(=NOC1)OC3C2 S=C1NCC=CC=C2C=CN1C=C2 C1=NOC2CN3CC4(C2)OCC3C14 OCCC1C=CCN2NN=CC2=N1 NN1C2=NNC3CC(O)(C23)C12CC2 C1=NC2=NC3=C(CC2N1)C1NC1C3 NN=c1cc2c3c(sn2o1)CNC3 OC1C#CC2=CC3C(C2)C3NCC1 Oc1c2[nH]c(c1O)C1COCC=C21 C=C1C2=NOCC3(O)C(=C)C1OC23 CCCC1=C2OC3C4C=CC2N4C13 C=C1C2CC34CCC(C13)C1(C)C4N21 CC1C=NN=CC2=NCC=C(N2)O1 C1=C2OCC13OC1CC34CC1OC24 CC1OC2C=CC3C4(CC4)NCC123 C=C1OC2C3C4=CC15CC(C4N5)C23 C=C1NC2=NC3C(=O)C1(CC3C)N2 CC12NC1C1C3C4=NOCC2(O4)C31 C1=Cn2c(nc3c2N2CC2CC3)C1 CC12C3C4C(O)C1C1(N)C(N32)C41N C1=C2OC3=C(C4CC3C4)C2CCC1 C#CC12CC3=C4CCN(C1C4)C2C3 CN=C1CC2(C)CNNC2=C1OC C#CC12C3C4NC(C4C(=O)N1O)C32 ON=CC12CC3C4CC3C1N=C4N2 O=CC(ONc1c[nH]nn1)C1CC1 C=CN(N)C(=N)N(OC=O)C(=C)C CC1C23CCC(C2)C12CN=C(C3)N2 CC1=CN=NCC(C)C2C(C)N2N1 NC(=NN=C1C=CCN1)C(O)C=O OC12CC(C1)CC13COC21C=CO3 CC1=CC(=NN)C(N=C(C)NN)=C1 CCc1[nH]nc(C(C)=NO)c1C=N CC1COC(N2CC3(O)CC3N2)=N1 CC12C=C3C(=CC4OC1C34N)O2 ON1C=NC(c2onc3c2CN3)C1 N#CC1(O)C=C2COC13C=CC2O3 CC1=COC(C(C2CO2)N2CC2)O1 CC1OC2(C3CC13)C1ONC(=O)C12 O=C1N=C2OC1CNCCC1CN21 NCC1C#CC2CC(=NC=N1)NO2 N=C(CC1C2CC1OC(=O)O2)NN CC12COC34CC5C(O3)C1N5CC42 NC12CC3(O)C4C1(O)C(O)C2C43O OC1C2CN3C4CN2C2C4OCC123 NC12CC3=C4CC(C3)C(CO)(C1)C42 C#CC12C3=NC(C)(C)C1NC2CN3 NC1C2(N3CC3)CC2ONS1(=O)=O C1=COCCCC2C3N=C(C1)NC23 C=C1CC23CC(=CC24CN4)C2C1C23 O=CC1=C2C(=O)C3(CN1)OCC2O3 NC1C2C=C3C4CC(C4)N=CN3C12 C1=NN=C2CCC(=N2)N2CC=C1C2 C=C1CN2C(=O)C3(CN3)C(C)N2C1 CC1CC2=C(NC(=N)C3C2N3C)O1 NCc1cc(NO)c2n1CCN=C2 CC12C=C3C(CC4CC1(O)C34N)O2 C1=NC2=NCCN3CC3CN(C2)N1 NCC1COCOC2=CC(OC2)O1 C1CC2ON=C3NOCC1CNC32 CC1CC2(C1)N1C3C=CC2(O)CC31 C1NC2C3OC1CC21CC2C3N2C1 CC1CC2=C3OC1CC3(O)CC2 N#CC1(O)C2C3CC(C21)N3NC=N C=C1C2CC3(CC1OCO2)OC3C Nc1nnc2c3n(cc2c1Cl)CC3 CC1Nc2nc(=O)nc3c(c21)CN3 C=C1C2CC3(CON(C)C2=N3)C1O C#CC1N2C=NC3C(=N)N4CC4C312 CC1CC2C3CC4(O1)OC3C(N)C24 O=C1C2CN3CC14C1CC(O1)C4C23 O=c1o[nH]c2c1C1OC23CC1=CO3 CN=CC1=CNc2c(c[nH]c2N)O1 NC12CC3C(C1)C1C3C2=NN1C=O O=C1C2C3CC14CC2C3NN=CN4 NC1CN=C2NC(OC=O)=NCC21 C#CC1(C)NNC2=CC=NCC21O CC12C=C(CCC3CN(C3)C1)CC2 OC=C1C=NC=C1Cc1c[nH]nn1 CC1OCC2COC3C4OC=C1C243 CC1C2C1(O)CC1N3CCC12CC3 CC1=CCCC23CCC1(OC2C)O3 Cc1sn2c(=O)c1C#CC#CCN2 CC(O)=C1COC(=O)c2ccsc21 CC1C=C2C(=CC34CC3COC24)O1 CC1CC2OC3C=CC24C1=NOC34 CC1=CC2=NC3(C=CN2N1)CC3O OC1=CC2=NNCC=CC=NN2O1 CC12C(O)C3C1C1=CC3(N)C2OC1 O=C1C2=CC3CC4C3CC3C1N3C24 CC1=CC=NN2C1=NC(=N)CN2C CC(C)N=CC=C(CC1CN1)NN COc1c[nH]nc2nc(C#N)nc1-2 N=C1C2=CC3NC3CN=CN1OC2 CN1NC2C3OC=CCON=C1C23 CN1OC2C3N4CC(C4)C23S1(=O)=O CN1CC=CC2ON=C(C=N1)NO2 C#CC12CC3(N)C(=C)C(OC13)O2 CC1=NCC2(O)C(=O)C(NN1)C2O C(OCCC1CC1)=C1CCCCC1 O=C1CC23C(CCN12)OC1C(O)C13 C=C1C(O)COCCc2cn1nn2 C=COC1CN=NC=CNO1 C=CC12CC3(CN1)ON=C(O3)C2=C C=C1C#CC2CN2NC=CC=NC1 C1=C2C3CC4C1C4OCC1C2N1C3 NC12CN(C1)C13C=C2CN(CC1)C3 CC1C2C=CC3=COC1C32C1CC1 C=NN1C2C1C1CCC2C12CC2N C1C2CN3C4C5CN(C5)C(C1O2)C43 NCC12COC3=C1CC(N2)C(=O)N3 O=C1C=C2OCCCNCC3C1N23 C=C1C=CC23CN(OC)C(=S)N2C13 CC1CON2OC3=C(CCC3)C2=N1 CN1C=CC(C(=O)O)=NC(=N)N1C N=CN(NC1=CC=NC1)C1CNC1 CNC1(CO)C2C3N2CC2C1C23O O=C1NC2=C3C(C=C2)COCC13O NC1(C=C2NC(=O)C(=O)N2)CNC1 C=Cc1c[nH]oc(=NN=C)c1=N C=CN1OCCOC=C2CN=C1C2 CC12CCC3(C1)ON=C1C2C=CC13 C=CC1(C2CN3CCN=C3O2)CO1 CC1=CCN2CC=Cc3[nH]cc1c32 CC1CC=C(N)c2c1[nH]c(=O)n2C OC=Cc1cc2cnnn2cn1 O=C1C2CC3CCC#CCCC2C13 NC12CCC3=C4C=NOC1C(O4)C32 OC1CC2C1N=C1C(Cl)=CN=NN12 C=C1NC2=NC3CNC3C2=C(C)N1 NC=NC1CC(=O)c2c(N)noc21 CC12NN=CC13C1=NOCC1NC23 CC1=C2C=CC3C2N3CC=NOC1 N=CN1C2CCC1CNNC=NC2 CCC1N2C(C)CC3(C)NN=CC123 CC12C=NNC=C1C(=N)C(=O)C2 CC1=CC2CC3N4CC3(N)C(O2)C14 N=Cc1c[nH]n2cnc(C3CO3)c12 O=c1c(Cl)cccc2c1C=C(O)C2 C1=NC2=C(OCC2)N2CCN=C12 C=CC1ON=C2C(=CN(O)N2C)O1 Clc1c[nH]c(C2=CNCC3CC23)c1 C#CC12OC(CC3C1N3N=C)C2=O CC1N2NCC(=N)N=C2N2CC12C N#CC(N)=NN1CCC(=O)C=C1N O=C1C#CC2=NCC3C(CON1)N23 O=C1C2C=CCC23C2CC2ON13 CC1=C2C#CC(N)CON=C1ON2 O=S1(=O)ON=CC2C3N(O)C=NC231 N=C(N)N1CC2=C3CC4C(O3)C2C41 C1=C2COC3(C2)ON=C2NCC1C23 C1=CC23CC4OCC25CC1C3CC45 CC1=CON=C2CC(N)CON=C12 C=c1oc(=CCN)c(=O)n1N=CN OC12CC3C4C5CCC3(C=C1C54)C2 O=C1CC2C3C4CC25CC1C3C5N4 C#CCC1(C(ON=C)ON=C)CC1 CC1C2C3CCC#CCC(OC3)C12 O=C1C2C=C3OCCC1(CO)C3=C2 C1OC2C3CCC24C1=NOC4C3 C1=C2OC3C4C2N4C1C31CCOC1 N#CC#CC1=CC(=O)N=NC1=CO CC1=CCN2CCC(N)(C#C1)CC2 O=C1N=CC(=CO)C2=C1C(=O)NC2 NC(=C1OCC(O)S1(=O)=O)N1CC1 O=C1CC2CC13NC1C4C2NC3C14 NC12CC3=NOC1C1NC3=NC1C2 C1=C2CC3CC4(C2)OC3OCC14 CC1=C(c2cnns2)NC(=O)C1=N CC1=C2C3CC1C1CC(CO3)C21N CC1=CC23C=C4CC2CC1(N)C3C4 NC1C=C2CC3NC14CCC=C3C24 CON=C1C=C2C3C(N)C4C2N4C13 NC12C=CC3CC(C4=C1CC=C4)C32 NC1(C(N2CC2)C2(O)CC2)COC1 NN1NC2=CC1=NCCC=CCC2 CC1=NCC(C=O)C(=N)C=CNN1 OC12CNC34C=CC1=CC(CC32)C4 CC1C23CC(=NO2)C1(N)C1CCC13 CC(=N)N1OC(C)=NC(N)=CC1=O OC1CC2C=C1C1CC1OC=CC2 NNC1=C2C=NCC(O)C2ON=C1 CCC1(N)C=COC(NC(=N)N)=C1 CC12C3OCC14CC1(CN1)C2C3N4 CC=CCCC1=CC(=CO)C=N1 CC1(O)C23CC4OC4C12NNC=N3 CC1=CC2=NC(=O)OC(=O)C2=C1O N=C1OC(=O)C2CC23C2CC2ON13 C=CC1CN=C2C(C=N)=CNN2C1 ONC1=C2C=NC=NC2C2CC1N2 CN=C1OCCCCC1=CNO OC1CC12C=CC1(O)CNNC1=N2 CC12C3CC(C#N)N1C=NNC32 CNC12C3NC4C=C3CC1C(N)C42 CC12NCC3C4C=C1C=CC2C43 CC12CC3CC34CCOC14C2N N=C1CNNC=C1C(C=O)C1CC1 C=CC(C#N)=C1NC=C(N=O)C1=O C#CC1CCC2C3C=C1C1C2N1C3 COCC1=CC(=N)c2c(N)n[nH]c21 CC12CCN1C1=NCC(N)=C1C2 O=C1C2OC34CC(CCC2C13)CO4 CC1C2CN=CC(=CNN3CC3)C12 C#CC=C1C=NN=C(N(C)N)N=C1 OC=Cc1occ2c1C(O)C(O)=C2 C#CC1C2(C)C=C(C)C13CC2=NN3 CNCC12CC3C4(O)CC3(C)N1C42 CN1CCC2=NC3CC(C4CC34)N21 C=C1C2C=C3CC1N1CC3=CC2C1 CC12CC3C4(C=CC(C4)C31O)O2 C=C1C2C3=CC(C)NC34CC2OC14 C=CC1CN2C(=CC(=O)S2(=O)=O)N1 C1=CC2C3CCC4=NOC(CO1)C423 CC=NNC1=C(CO)C=NCCC1 C1=CC23CN4C(C2C1)C4C31CO1 CCC12OCC3C(CN4C1C34C)O2 O=S1(=O)C=C2NNC=C2C1N1CC1 C=C1OC=C2OC3OC=NN=C3N12 O=C1NC2CNCC3C(=O)NC1=C23 CC1=CC2=C3CC4C1C(C2)N4C3 OCC1=C(O)N2CC=CCN=C2S1 CC1CC23C(=N1)NOC2C3C(C)O COC1=C2C3=CCC2(O)C2NC3C12 C#CC(=O)C12NC1(CO)CN=C2N C#CC1(C)CNC(C=C(N)OC)=N1 C1=CC2=CCC3=CCC(C=CC23)O1 CNC1C2=CC3(N)C4CCC2N4C13 N#CC12C3C(=O)C4C(NC5C4C51)C32 NC1C2C3COC4(CNN=C34)C12 C1=CC23CCC(C1)C1(C=C2CC1)O3 CC1=CC2C3CC4N(C)C13CC24C C=NNC=CC(C=O)=NCCCO C#Cc1cc(C#N)c(NO)c(O)n1 NC1C2C=C3C=CC1(C1CC1)C3=C2 C=NN1C=Cc2c(C)cnn2N=C1 C1CC2(CO2)C2=NCC3(CC3)CN12 CC12CC3=COC4(C1)CC2(O)CC34 CC12CC1N1C3CNC4CCC2C431 COC1=NN2N=CC(C)CN=C2S1 CC1C(O)CC2N3C(NO)=NCC123 C=C1C2C3CN3C34COC(CC23)C14 C1#CC2=CC3C(C=CCC1)N3C2 C1=NN=C2OCC(O2)C2=CCN1C2 OC12CCC34CNC(=N3)OC(C1)C24 O=C1OC2C3CC(NN=CNN3)C12 C#CC12C3OCCN4C3C(=C)C1C42 CCC1N=C2NOCCCN=C1N2 CNC1C2NNC=NC(C)=COC12 NC1CC23CC4C(=NO2)OC3C14 O=C(O)C1C(NO)=Cc2csnc21 C=CC1=CNOCC1=NCC C=C1CC2(C)N3C(CC24CC4O)C13 C1=CC23OC(C1)C1(COC2C1)O3 C=C1C=CC2C3C=C1C1C(CC3)N21 C1=NN=CNC(C2=CC3CC2N3)=N1 C1=CC2=CC3(CC=C2)OCC(C1)O3 N=C1NC2=NC13C1CC4C(O1)C3C24 CC1Oc2c3cnsc3nn2O1 CN1CC23CC(CN2)CC(=N1)C3N O=C1C=CC2C=C(N=CN1)OC2=O CC1C2=NCC1N(C)NC=NC=N2 CNN1C(=O)C2=CNNCC2=C1C Nc1cc(C2C3C(=O)N=CN32)co1 CC1=CC2(CC1)Nc1c2[nH]sc1=N C=C(C)C12CC3=C4CC1N(C4)C2C3 C#CC(C)C1=C2C=NC3CC23NN1 CC1N=CNC2=C1C(=O)C(=CN)N2 C=C1OC2CNC3C(=O)NC4C1C234 CN1C=NC23CN4CC5C(C4C12)C53 C=CC1=C(C=NCC)C2C(C)N2N1 CC1NNC2=C1C=NC1C=COC21 N=C1C=CC23CCC4=NOCC42N13 C#CCC=C1C=CN(O)C(=O)N=C1 O=C1N=COC(CO)=C2CCC=C12 C=C1CN2C3CCC4(NCC=C14)C32 O=C1Oc2c1nn1c2OCC=N1 C1=COCOC2=CNC(=NNC2)N1 OC1CC12NNC1=CC=NC1C2O C1=Cc2ccn3c2C(=CCCO3)O1 CC(CC1CC2C3COC1C32)=NN CC12CNC13C(=O)NN1CC13CO2 NC1C2C1(N)CC1=NOC3CCC132 CCn1c(=N)on2nc3c(c12)OC3 CN1C2=NC3C1C1OC3(C)OC21 O=C1NN2C=C(C3CN3)CN=C2S1 CCC12C3C4NC3C(C)N1C2C4C N#Cc1c(CO)n2ccon2c1=O CC1=Cc2sccc2CCCON1 N=C(N)C1=CNN2CC2C1(O)C=O C=C1CC2=NN(CC2)C(=N)C=CO1 C=C1C2=C(N=C(N)C2N)C(=O)N1C CC12C(=O)CCC13C1CC(CN23)N1 CC(=O)C1C2N=CC3=CNNCC321 C#CC12CON3CC(C)N=C3C1N2 N#CC1=C2C3CC4C(O)C(C1O3)C24 C1=CNC2=NOC3COC3C2=CN1 NC1=Cc2noc(c2Cl)CCC#C1 O=C1OC23C=C(CO)NC2=NOC13 C=C(c1cc(=N)s[nH]1)c1ncns1 CC12C3=C(C#N)CC1C1C=C3CN12 On1nc2c(n1)C(C1=CCOC1)O2 C=CCc1nnc2c(C)o[nH]c1-2 CN1C=C2C(=NN=CN3CCC23)S1 CC1(N)CN=CC=CNNC=NC1 C=CC1C(C#N)=CNC(=C)N1C=N C=C1OC=C2CC3C4CC1C2C34 CCC1CC23CN=C(C)C2=CNN13 C1CNC2(C1)C1C3OC3C2C2OC21 CC(=O)N1C2C3C4C=C(C)C3C4C21 NN=COC1(C=NN)CC2CC1C2 CCC1N=C2CC1CC#CC=NN2 C=NN(C(=C)N=CN)S(=O)(=O)CC NCC1ONC=C(c2c[nH]cn2)O1 C#CC1(N=c2s[nH]cc2N)CNC1 CNc1ccc(Cl)c(=NN)oc1=N C=C1CC2C(=N)NC13C=NN1CC213 CN1N=COC2=NOC(CC1=N)C2 NN1C=C2C=CC=CCON=C2O1 C1=CC2=C3C(=CC2NC1)C1CC3O1 C=C(C=O)C1=NCC(C)C(NO)=C1 CC1CCCN=CN2C3CC=C1C32 CC1=C2C3OC1(C)C1CC2C1(C)O3 CN1CC12C1CCC23C=CC=C1O3 NCC12C3=NCC1C(N)C2(O)CN3 NCC(O)C1C2C3=C(CC=C3)CN21 NN=C1C2CCC2(C(=O)O)CN1N CC1=C2OS(=O)(=O)NC=C2C=N1 CC=C1N=C(N)C2=C1C(=O)C=N2 N=C1C2=CC=CCC3CC3N1CC2 OC12C3CCC4(CCC1C34)C21CC1 CCC12C3OC4OC(C5CC4N51)C32 CC12OC3=NNCC(C1=O)N1C3C12 C#CC1=C(NO)Cc2n[nH]c(C)c21 N#CC1=C2CC=NN=C2ON=C1N OC1CC12CC1(CNNC=N1)CO2 C=C1C2C3=NOCC1(CN2C=N)N3 OC12C3=CC4COC(OC41)C2OC3 N#CCc1c(Cl)ccoc(=O)c1=N CC1(O)CN=CC(CO)=CNOC1 N=C1CC=CC=CC2=NN=CNN12 N=c1cc(Cl)c2scnc2cc1Cl C=CCN1C(O)=CC2=NOCCN21 C1=CCC2C=C3COC(C=C1)C3=C2 CC12CN3CC#CC=CC(CC31)N2 CNC1=NC(OC)=CC12NCC2N CN1C2C(=O)CN=C3ONC=C3C21 CC12C(O)CC3OC14C=C(OC4)C32 C=CC(O)=Cc1cc2cn[nH]c2o1 CC12NN=C3CC4=CC(N)C1C4C32 CN1C2(C)C=CC3C(=N)N4CC4C312 CC12CN1C1COC23OCC2NC213 N#CC1N=C2NC13C1CNC3C2O1 CC12CC3CC(=CCO1)C2C31CN1 NN=C1CC2CC3CC(C3O2)N1N N=C1NC23C4COC(C4)C2(O1)C3O CC12CC3CC1C1=C(OCC1)C32O C1=CC2C3C4CC5C3C(C=C1)N2C45 CC=C1CC2CC3N=C(N1)C1C2C31 Nc1s[nH]c2ncc(C(=O)CO)c1-2 O=CC1=CC2=NC(=NC=NC1)NO2 C1=Cc2cnn(c2)C2=NC(=NC2)C1 C1c2nnoc2C2CC3(CC3)CN12 CC12CC3C=C4C1=CCC4(O)CC32 C=C1C=CC(N2C3C4CC(O4)C32)C1 NC12CN3C4CC5CC4C3C1N5C2 CC1=C(c2[nH]oc(=N)c2Cl)OCC1 NC1CC2=C3C1=CCCC3OCC2 C1C2CC3C4NC5C4OC3(CO2)C15 C=C1NC(=NC=NC)N=CC(=O)O1 N=c1cnccc2[nH]c(=NO)sc12 C1=CC23CC4CC=C1C2C1NC3C41 O=C1C=NNC1=C1C=CN=NC1=O CC1=C2NOC(=O)C2C(N)CN=N1 O=CC1C=CCN=C2NC(=CO2)O1 OC=C1OC=CC1=NC1CNC1 O=c1s[nH]c2c1C=C1CCC2OC1 Cc1scc2c1N1C2C=CN1C=N NC=NN1CC2C(=O)OC2C1CN O=c1sc2c(s1)C(=CO)C=CCC2 CNC(=N)C(C)=C(NO)C1CNC1 CC12CC(=NN)C3C4N=C1NC4C32 C#CC1(C#CC(N)=NN)CC(=O)N1 COC1C2C3CC4(C)C2(O)C4(O)C31 CC1=CC=NN=C2OC(C)=C(O)N12 NC12CC3C=C1OCC2CC=CO3 NC=C1CC=CN2CC3CN3N=C12 NC1C2(C3CN3)COC3C(O2)C31O NC12CC(O)C3(CC1N(C=O)O3)C2 O=C1CC2=C3CC4C5C3C5C2C14O CC12CC3(O)CC=C4C1OC2C43O C1=NN=C2COC=C3OC(CC32)O1 C#CC1=CC2C3C(=O)C4=CC3C2C14 CC1C2=NNCCC(=O)NN1C=C2 OC1C2=CCOCC3(CC1CO3)O2 COC12C3C4CC1(CN4)OCC32O OC1C2C3=CCCC=NOC(C3)C12 C=CNC(Cc1[nH]ccc1Cl)=NN CCC(C)C12CC1N1SN=CC1=N2 CC1C#CC(N)=NC=CCC(=O)C1 CN1C(C2=NOCON2)C1(C)C COC1=CC(=N)NNC(C)=CC1=N Nc1c2cn(c1N)CCC=NN=C2 CC1CN2CC3C4C5NC13C(C2)C54 C1#CC(C2CCO2)=CC#CCC=C1 C1N=C2NC3CC3N2C1CN1CC1 CN1SC(CO)=C2C1=NOC2C=O NC1C2C3=CC4C(O)C(N42)C1(N)C3 CC1(C2=CC3=NN=CON3C2)CC1 C1=C2CC3C4CNC13CC4OCO2 CC1CC2CC(CC3CN=C1N3)N2 O=C1N(O)C2C3=NN=CC13C1OC21 COC=Cc1onc(N(C)O)c1O O=C1OC2CC3NC14CC=CC3=C24 CC#CCN=CC(=CNO)CC=O C=C1OC2=NN=CCCN=C1N=C2 CNC1C2=CC3(C=CO2)C=CC1N3 CC1=NC2=NC34CC3CN=C4N2O1 OCC1OC23CC1C(=CC2CO)O3 C1=CC2OC3C4CCC2OC(=C1)C43 CN1OC23ON=CCC2(C1=N)C3N CC=C1C2=CC34COC(C1C3)C4C2 CC12CN=C3C(=O)SNN3C1C2 CC1=NC=NN(C=O)c2ncoc21 Nc1cc2c3c(n[nH]c3n1)OCO2 N#CC1C(N)=NNCC(O)S1(=O)=O CC12CC3=NNC(C)(C3N1)C21CN1 CC(=C(N)c1cscn1)S(C)(=O)=O NC(=NN1CC(CC=O)C1)C(=O)O CC12C3=CC=CC4(CC1CC34)C2N OC1=C2c3ncsc3C=CC2CC1 CC1C2(C)OCC1(S(=O)(=O)O)CO2 O=C1NC23C(=O)NNC2=NC2C1C23 N=c1c(O)cnc2n1C=CCN2O N=C1N=COC2=C(OCC=C2)N1N C(=NN=C1CC=NO1)c1ccon1 CC1CC2=C(C1)C1OC3CC=C2C31 NC12C#CC=CC3C4CC1N(C2)C34 ONc1cc(C#CCC2CC2)[nH]n1 CNCc1nscc1C1=CNOC1 C=C1N=C(NO)C2=C1C(=O)C(C)=N2 OC12COCC34CC1C(=CC2O3)O4 C1=C2C3C4CCC2(CN43)NCCC1 C=CC1(N=c2nnn(O)o2)CC1C C=CC1=C2C(C)=NN=CN=C2OC1 CC1=NN2C=CC1=NNCC=CC2 CCOC(=N)c1c[nH]c(=O)n1CC C=C1OC2COC1=COC=CCO2 N#CC(O)C12CN=NC=CNN1C2 NC12CN=C3NCC4C(C=C31)NC42 CC1C2CC(=NC3=CCCC3)NC12 CCC12NC3C1C1=CC3(N)C2CC1 CC1=CC=Nc2c3c(cn2N1)CN3 NCC12CCC3(CC1)NN=CC=C23 C=C1CC=Cc2c3[nH]nnc3nn21 N#CC1=NC(=NC2CNC2=O)N=C1 C=C1C=C2C3C4OC2(OC43C)C1N NN=C1C2NCC3CC3C2CN1N C1OC1c1nc2c(o1)C1CN(C2)C1 OCC1=NC(=C2C=NN=C2)C=NO1 C#CC1(O)CCN2N=NSC2=NC1 CC12C3NC(=O)NN1C1CC1OC32 C1#CC2C3C(CCN23)C2OC2C=C1 C=NNC=CC1=NCCCC(C)=C1 NC12C3CC4=NOCC3OC1C2O4 C=C1C=C2C3C4OC(OC43)C23OC13 O=C1C23CC4OC4C1(C=NO2)CO3 C=C1OCC2(O)C3(N)C(=N)NOC123 CN1C(=O)C23CC1(C)C(=N2)NC3=O CC1CC2=C3OCC4C3C(C2)C14C CC1C2C3CNC4C5C2N5CC14N3 C=C1COCC(C)=C2CN=C(N1)N2 N=C1NOC2C3(N)C=CC2(C=C3)O1 NC1CON=C2C=CN(O)N=C2C1 CC12NC3CC4=C1OCC2C3C4N CC1C2CC3(c4cnn[nH]4)CC3C12 COCC(C=O)=c1ccc(=CO)o1 O=CC1C#CC2CC(CC3CN13)N2 Cn1nc2c3c1OCCN3CCN2 CC1=NC(CO)CN2ON=CC2=N1 CC12CCC3(O)C(C1)C1CC23CN1 NC12CCC1N=C1NC(=O)SN1C2 NC1CC(c2cc(=NO)n(O)o2)C1 C=CN=CNc1nncnc1C=C CC1=C2C=NOC(=O)NCC(=C1)C2 CNC1C(NO)=C(C)c2csnc21 CC12CC3(O)C=C1C(C3)OC2=NO OCC12CC3C(C#CC=CO1)C3C2 CC12CC34C=NN=C3C1C(=NN2)O4 C1=CC2OCC3(C1)C1NC1C1OC213 CCC(N)C1=CN=NC(C)CON1 CC12OC3CCCN=C1NCC2C3 NN1CC2C3N2CCC32CCN=C12 COCC12CC3N4C(CC3(C)O1)C42 C1=CC2C3C(CC1)N1C2C1C1CN13 O=CC12CN(CC(O)C#CCN1)C2 CC12C=COn3oc(=N)nc3N1C2 CC1C2OC3CC24CC(CO3)N1C4 CC1N2C3=NNCC3=C(N)C12CN CC1C2(C)C3CC3N(C)N2S1(=O)=O N=CC1=C2NC(=N)C=C2OC1=O CCC1CC2=CC(=CC2)N=CNO1 C1=C2OC3C(CNC4C2C43)NC1 NC1=C(C2=CN=CC2=O)C(=O)N=C1 C#CC12C=CC34C=C(CN31)OC2C4 NC12CCC34C(=NNC13)OCC4C2 C=CC1(C2N=CC=C2NN)CN1C C1=CCC=C2CC(C=C1)CN=CN2 O=C1CC2CN3CC4=CC13C2OC4 CC1C2C=CC34CC=C(C3=O)C1N24 CC1=CC2=NN3CC(=N)N=C3C2N1 CC1C2C3=CC4(O)C1C4N2CC3=O C=NN=C1C(C2(C)CN2)=CN=C1C C=NN1C2C3(C(C)C)CC(N3)C21C CC12CC=CC1n1nc3c(c12)CC3 CN=NC1=C2C(=O)NC=C2CC1O C=CC1(C)N=C2C3CC3C3CC1N23 C=C1C2=C(N=CNCC1C)OCO2 c1[nH]nc2c1C(C1CCNC1)ON2 CC#CC1CN2OC(=O)SC2=N1 CN1NC=Nc2c1sc(O)c2O OC1C2CC#CC3=CC(CO3)C1C2 C=CC1=NCC2(C=O)NNC(C)=C12 CC12C=C3OC(C1=O)C1CC3N12 CC(C)C12C3NC1C1C3C1C21CN1 C=CC1CCC(O)=C2C(=O)OC=C21 CC12CC(C(O)C=O)(CN=C1N)N2 CCC12CC3CN(O)C(=NN1)C32O CC12C=CC3(CN)NCC(C1)C3=C2 CC(=O)C1=CN=C(CO)C(C)=CN1 CCC1N=C(C)C(=CNN)C=C1C CC1C2=C3OC4C2C4C2C3CC12C C#CC1(O)C(O)=Cc2sccc21 C1=Cc2ccoc2C(C2CN2)=NN1 C#CC(=C(C)O)c1occc1CC CC1C2C=CC1C13C=C2C(CC1)O3 C1=CCCC2N=C3C=NON3C2=C1 C=Cc1c[nH]c2c(c1=N)C(C)C2N C=CC(=C(C)N)c1c(C)[nH]sc1=O C=CC(=N)c1cc(OC)cnc1N C=C1C=NC(=NC)C(N(N)C=N)=C1 C1=NN=C(CC2CCCC2)N=CO1 CN1C(=NN)C2N(C)C23CCN=C13 NC1=NC23CCCOC2(C1=O)C3O CC12CC1C(N=C1CCNN1)=NO2 OCC1CC2c3nonc3NOC12 N#CC12NCC3C4CC1=NNC2C34 CC12CC3CCCN=C3C1=CNO2 C=C1CC(=NC)C=C2NOCC12C CNC12CCC3(NC1)C(=O)ON=C23 NC12C3NCC14NCC4C1NC1C32 CC12C=C3OC1(C)C1C2NCC31O CC1C2CCN=Cn3ccc(n3)N12 CC1=NCC2N(CC2(O)C(=O)O)N1 CC(NO)=C1C(=O)C(C=O)=CN1C C1=CC23CC4C=C1C2C1CCN3C41 C1NC2=NNC3CC23NC12COC2 CC12C=CC3=C(CC4CC3C1O4)O2 NC12CC3(C=CC1=C3)N1CC12 C=C1C2N3CC2(C)C2(C)CC1C32C NC12CC34CC=C1C3(N)C1C(C4)C12 CC1=C2C=COc3nnn(c32)CC1 O=C1C2C3N2CC1(C1CN1)S3(=O)=O CC1=C2CCN=C(C#CC=CO1)N2 CCCC=C1C=NC(=N)OC(=O)O1 OC1C=CC23OC4(C=CC2C4)C=C13 CNC12COC34CC=C1C(CC32)C4 C=C(C=O)C12C3=NCC1NC2CN3 CC1CC23CCN4C(C(C)N2)C43C1 OCC1C=CC2=CN=C(C2)N=CN1 OC12COCC34CC(=CC31)C2O4 N=C1CC(O)C(=N)N2C=CSC2=N1 O=C1CC(O)C2C13CN3CS2(=O)=O ON1C2=NOCCN3CC3C1C=C2 NN1CCC2C(=CC(=O)N2N)C1=O C=C1C2=C3CC4CC(C1O3)C4OC2 CC1=NN=C(C)N2CC(=CC1)CO2 CC1CC2CC3=C(C(=O)N=C3)C12N CC1N=C2CCC13CC(CN3)N2N CN1OC23CNC4C(C2)ON=C1C43 CCC12C3NC4CC4C31N=CN2N NC1COC2OC(NC=O)=CC=C12 CN1C=NC2CC=C3CC(CC32)N1 C=C1C(=O)CC2=C1NC(=O)C2=NC CC12CC3(CN=CN3N1)C1CC12C N=C1C(O)CC2(C3OC=CO3)CN12 NCC1C#CC(NO)=NC=CCN1 C1#CCN=CN2NC=NC=C2C=C1 C=C1C2(NNC=N)CN(C2)C12CC2 NC1C2=CC3NC4C(N)C2OC4C31 N=C1C=CCN2OC(CO)OC2=N1 C#Cc1cc(C)c2cc3n(n12)CC3 C=C1C2CNC13C(=NNS3(=O)=O)O2 CC1CC12ON=C(n1nccn1)O2 CC(=O)N=C1C(=O)NC(CN)=C1N C1=CC2=NOC3=NN4CC4C3C2=N1 C=C1OC2OCC13C1OC1C1NC213 N=CN1CCC2=C(N1)C(CN)N=C2 CC1=Nc2onnc2OC=C1 C=C(C)OC1=CC(=CO)N=C1C#N N=c1[nH]c(N=Nc2ccco2)cs1 OCC1(O)C2CN3CCN=CN3C21 CC12C3=C(C(O)CO3)C3CC1NC32 C=C1C(C#N)=CN=CON1C(N)=O CC1=NC(=O)C(=C2OCOC2C)O1 CC1NC(C(C)NC=NO)C1=O CC12CC3(O)C4(C)C1NC2(C)C34O C1#CCOC2=NOC3C(ON=C1)C23 OC1=Cc2cccc(c2)OCC#C1 CC12ON=C3NC4C(NC(=N)C41)C32 NC12C#CC#CC3COC1C2CN3 CC12CC1C13C4CC(C4)NC1C3N2 C=Cc1c(NO)cccc1NO O=c1oc2sc3c(c2s1)CN1CC31 C1=C(n2cc3cn[nH]c3n2)CNC1 CC1OC2C(CO)(OS2(=O)=O)C1C C1=CC23CNC4C(CO1)C42NC=N3 C=C1CC23NC4CC2C4C1=C3CC CC12CC3C(C4CC4)(C=CC31N)O2 NC1C2CC3(O)c4ccsc4N2C13 O=C1OC2=CC3NC1(C2)CS3(=O)=O NC1C23C=C(CN2)C(C3)C12CCO2 OCC1(NNc2cc[nH]n2)CC1 CC12C=C3OC1C1CC=C3C12N C1=NOC2CC3C=C1OCC3CO2 Nc1cnn2c1N1C(=O)CC=C1O2 C=C1C2C3CC4(C)CC=C(C32)C14O CC1=NC2=C(CC(C(C)O)N2)C1=O COC1=NC(=O)C2=NOCCC=C12 C=C1C2=CCN3C4C=C2CC4(N)C13 C(CNc1c[nH]nn1)=C1CCOC1 C=C(C)N1c2cncn2OS1(=O)=O C1=NN=C2NC=NC12CN1CCC1 OC1CC2CC13CC1=NNCC12O3 CC1=CN2C=Nc3[nH]ncc3N2C1 C1NC2C1N=C1NC3CC12N1CC31 C=C1CC2=C(OC)C13C=C(C)C2O3 CNCCN1CCC2=C(CN=C2)N1 C1=CC23C4=NNCC4OCC2N3C1 C1=NC2C3NCC4NC4CC(N1)C23 O=C1ON=CC#CC2CC1=CN2 C1=CC2NC3CN4C5CC5C3(O1)C24 N=c1[nH]c2c(o1)OC=CC2=CNO CC12CC34CC=C(C1N3)C4(C=O)N2 CC1=C(N)C2=NC3C(N)C3N2S1 C1=COn2cnc3c2C=CC3CO1 NN=C1C=CCC1C1CN(N)C=N1 CC1C=CN2N1CCONS2(=O)=O C=CC1NC2C1C1NC23CC=C1C3 O=CN1CCNC(=C2C=NOC2)N1 CC=NOCC1N=NC2=CNOC21 C#CCC1=NC(=O)NC(=S)N(C)O1 NC(C=O)=C1C=CN=C(NO)C1=O CC1=NC2=CN(C)C(C#N)C2=NN1 CC1=NOC2=NC(=N)NOC2=C1C C#CC1=CC23C(NC4C(C)C42)C3O1 Cc1ncc(N=N)c(NC(C)C)n1 C1#CCC2=CC3CC2C(=NOC1)O3 CC1=CC2=CN=C(CNN=C1)NC2 OCC1=CC(N2CC=CC=N2)=NC1 CC1N(C)C=C2C=NN3C(CO)C213 CC(C)C(=NC=NO)C1=CNOC1 C=CN1C=C(COC)C(=O)C1=CO C=C1N(C)C(C)=NC=CC(=N)N1N CCC1C=CC2=CC(=CO)N=C2O1 N=c1cc2ccsn2n1C=CCN N=C1OCC2=CC3(C4CC4)CN3N12 CC1(C)OC2C=NNC=NN=C1C2 CC1=CNc2n[nH]c(c2O)CC#C1 CN1SN=C2C=CCN=CN=C21 C#Cc1ccc(NN)ccc1=NN OC1CN2CC23C2C4CC13NC42 OC1C2C=C3CC4CC1(CN2)C3N4 O=CC12CC3C=C4CC3(C1)C(O)C42 Cn1c(=N)oc2c3cnsc3cn21 C1=COC(c2cc3occc3o2)O1 Oc1c(Cl)cn2c1C=C1NN=CC12 C=C1CC2NC3(C)C=CC1(C)C2=C3 C#CC12OC3CC14CN=CN4OC32 C=C1C2CC3C(=NCCC13C)N2N N=C1CC23C=CC(C(=N2)N1)C3=NN CC1(N)C23C=C(N=CN2)C1(O)CC3 C=CC(=C)n1c(C=NC)c[nH]c1=N CC1C23C=NOC12OC(=NC=O)N3 C#CC(=C(N)OC=CC)S(C)(=O)=O C=Cc1c2c(nc(N)nc1=O)OC2 CC1C=CC2C3OCC4=C1CN2C43 C1=CCCC2Nc3n[nH]c(c32)CC1 O=C1NCC(=CO)c2cncn2O1 N=C1CC23CC(OC2=O)C(=N1)N3O CC1N=C2C=C(O)SN2NC1CO CN=C1C2=C(NNC2C=O)C2NC12 C=C1C2C(N)=NC3(C)C1C(=O)OC23 CNn1c(=N)sc2c1cc(C)n2O C=CC1=NC(=N)N=C(C#N)C(=C)O1 C1NCC23NC4C1NC2CN1C4C13 ON1C=NN2C1=CC=C1CCN=C12 CN1NC=C2C(=NC=NO)C=CC21 CC1C2=NOC3C2C=CC2C1C23C CC1CC2=CC13CN1C2C1C3(C)N COC12C=CC(=O)C3=C1CC(C3)C2 CC(C1=NCC=CO1)=C1CCNN1 C=C1C=C(C(=N)NC)C(=N)N=CO1 C(#CC=C1CC=CO1)C=NN1CC1 CC1=NC=CC2=C(C)C(CN1)NC2 CC1c2c(c(O)n3c2CC3)CC1O C1COC2CC3(C4CO4)CN3C2=N1 C=C(C)C1=C(C2CN2)N=NC1=CO CC12OC3C(=O)C=C4OC3OC1C42 OC1C2=NOC34OC1C1C(OC23)C14 C=C1C23C=C(C=NO2)C2C(C3)C12N C=C(C)C1C=CN2C(O)=CSC2=N1 OCC12CC1ON=C1ON=CN=C12 N=C1OCC23C4CNCC42CCN13 C#CC1=NC=C2C=CC(CCN1)C2 C1=COC2CC3=CC=C(C1)C3O2 CC1(CN2CC(=O)N(N)C2=S)CC1 NN=C(N)C1C2N1C(=O)CC21CC1 NCC1NCCCOC2CC1=NO2 CC1(CC2=CNCCC2=O)CNC1 C#CC12CC1C=C1C3OC4C1C4C32 OCC#CC1CCC2=CNSC2=N1 C=C1OC2CC23N=C2OCCN2C13 CC12CC1NC1C3CC24CC1C3N4 O=C1CC23CCCCC24CC4NN13 N=C(C#CCn1sccc1=O)NN NC1CC2CC3(CO2)NCC2CC123 CCC1=Cc2c(Cl)cccc2CN1 C=C(N1CCN=C1CO)C1(C)CC1 N#CC1=CN=NCCC#CCON1 CCC1CC(=N)C2=C1NNCC2=O N#CC12C=CC3(CC1)C2C1CN3C1 CC=C1OC2CC3OC4=CC13C2C4 CC1OC2(C)CC13CN=C(CO2)N3 C=C1C2NNC3=NC1(CC3)CC2O OC1C2C3=CC4OC5C3C5C4C12O CC1OC(n2nccn2)=NC1(C)C CC12CCC3CNC4C(N)CN1C342 CC1C2C3CN3C13COCC31NC21 N=C1C=NC2=NC(=O)CCCC2=N1 O=C1NC2=C3C1NCC3(O)C(=O)O2 C1=CC2(CC2)N=C2C3CCC3ON12 CC12OC3C=C4CCC3(NC1=O)C42 C#CC12C3C(COC)C4C(CN41)C32 CC1CCC2=CCN=NC2=C1NN CC12NC13C=NNC3c1csnc12 C=CC(OC)C(O)=C1C=CNC1=O C=C1C2CCN2C2C3N(N)C=NC132 C1COC2=NN=C(C2)C2(CN1)CO2 O=C1NOC2C3C4=C(OCO4)C2C13 C1=CC2=NCC(=CN2)OC2CC2N1 C=C1CC2(CC2O)C(C=O)C(N)=N1 Cc1[nH]c(=O)c2[nH]oc(=O)c2c1Cl CN1C=CC2(O)CC(=NC=N)N=C12 O=C1c2sc3c(c2CN1O)OCC3 CCC1=C2CN=NC=C2NOC1=O N=C1C2CC23C2CN2C2CC23N1N CC12C=C3CC(COCC1)CC3O2 CC1(CNn2sc(O)cc2=N)CC1 C#CC1=C(C)NC(C)=CN=C1NO CN=C(CC1=NC2CC2ON1)NO N=C1NC2C=C3C4CC(C4O)C13C2 O=C1C=CC(ON=C2CC=CN2)=N1 C1=CCc2cc[nH]c2C=CNN=C1 O=CC1CC1C12CN=CC1=CNO2 N#CC1(O)C2N=C(N)CC(=O)NC21 CC12NCC34CC(O)(CC31)C2=CO4 CC12NCC1C13CC(NC1=N)C2C3 C=CC12OC3C4C(NC31C(C)=O)C42 C1=CC2C3CC4(C1)CC(=NNC24)N3 O=C1CCC2N=C3ONC=C3CC12 OC12CC3C(N4CC4)=NC1C=CC32 CC1=CC2CC34CC2C(OCC13)O4 O=C1COC2CC3=CC=C(O1)C3C2 C1=C2CNC3CC(C3)ON=C1CN2 CN1CC2NCC13CCC1COC123 CC1=C2CCCOCCC3C1OC23 CC1(c2ccc(Cl)cc2)CC1 C=C1C2=CC3NC4CC3(C=C2)CC14 CC1N(C)C(=O)C23OC2CC2NC213 CC(=CC12CNC3C1C=CC32)CO CC(O)c1cc2c(N)c(=N)sn2[nH]1 O=C1C2=NN=CC=NNC(C2)C1O CC1=NN2SC(CO)=CC2=NC=N1 O=C1C2OC34OCC=C3CC2(O)C14 O=C1C#CCCc2nsn(c2=O)N1 C#CC(=N)N1OC(=NC)N=CC1=C OC1C2=CC3(O)C4ON=C2C4C13 CC=C(C)C1=NC=NC(=NC)NO1 CC12C=CC3=C4CC(NC1C3)C2C4 c1csc(=NN2CC3OCCC32)s1 CC12N=C3SC=NN3C=NC1C2O C1COC2C3CC(=NOCO1)C2C3 CN1N=C(N)C2ON3C(=O)CC3C21 NN=C(N)CCC=CC(O)C(N)=O C1=NOC2C(=C1)C1NC13CCC=C23 CC1C2(C3CO3)CN=CN2S1(=O)=O C=C1CN(C)NC(C=O)=C1C=NC CC1=C(NN)C(C2NC2C)N=C1 CCN=c1[nH]c(CC#N)c(N=O)[nH]1 N=C1CC23NN=C4CNCC42C3N1 CC1C(=O)c2c(C#N)n(C)c(=N)n21 O=C1C(O)C2CC34CN2C(CO3)C14 C=CC(=O)C1NNC=C1C=NC OCC12NC3C4CC1(O)CC4=CC32 OCC1(C2=CN3CCN=C3N2)CN1 N#CC1OC2C3C=C1C1C2N1C3 N=C1C=Cc2onc(c2O)N=CN1 CC1C=C2N=C(N)C3CN3N2C1=O O=C1CC2CC3NC4C5CC2C13C54 N=C1C#CC2CC(N)(CCN1O)C2 NCC12CCC34C(O)C3NCC14O2 C(=CCC1CO1)CC1=NN=CNN1 C=C1C(C#N)NN=C2C(N)=CON12 CC=C(C)C1CC(=N)NN=C(N)O1 NC12CCC34OC=CC(=CC1C32)O4 C1=NN=C2C3OC4C5OC3C5OC124 CC1=NC(=CO)c2oc(=O)nnc21 O=CC1CCC(=CO)c2cn[nH]c21 O=CC1(C2(O)C3COC2OC3)CC1 CC1C=C2COC(=NNC(=N)O1)N2 CCC1NC23C(=NC4CC42)NNC13 C=C(COC)C1=CNN=C(C)N=C1 N=C1CN2C(=N1)C1=CCC3CC2C13 CC1(C)CC(C2CNC(NN)=N2)N1 CC1CNC2C13C=CCC23C1CO1 O=C1C=CN2NC=C(Cl)C2=NN=C1 C(=NC1=NN2CC2C1)n1cccc1 COC1=NC=NC2=C(N1)C(=O)NC2 CC1=Cc2c(Cl)cc(Cl)cc2ON1 CC12NCC3NC4=NCCC3C1C42 COCC1C2N1C1C3OC2(C)OC31 OCC12C=C3CN1C1C3C3OC3C12 C#Cc1ncnc(NN)c1C=CO Clc1c2cccc1CCC=CC#C2 CC1C2CCC34C=C(CN23)OC14 CCN=NC1=CC2=CNC(=O)C2=C1 CC1C2C3C(CC4CO4)C2C2C1C32 NN=C1NC2CC2C1=C1C=CC=N1 CC1=CCC#CC2=C(C)C(CO2)C1 C=C1CC=C2NC=CC(=N)N12 CNC=C1C=C(C(C)N)N=C1NC CCC12C=CC3=CC(C(C)=C31)C2N OC1C2C=CC13CNC=NC(=N3)N2 CCC1=C(NC)ON2CC(C)N=C12 CC1CNCCC=C2CNN1C2=O CC12COC3(C1)ON=C(C2O)C3O C=COC1C(O)C2OC(NN)=NC12 OC1C2=COCC3(C2)CC2C(N3)C12 C1=NSC2=NN=C(C3CC3)CN12 CC12C3=CCNC4(COC1C42)C3N C1=NN=COC2(CC23COCO3)O1 C=C1CC2=CCN3CC4(N)C2C4C13 O=C1C=C2CNNC(=NC=CC1)C2 N=c1ccn2n1CC(C1(N)CC1)=C2 N#CC1ON=C2NC(C=CN)=NC21 C=C1CN=C2C3NC(CON12)C3C COC(C)C1=C2CNN=C2N=NO1 C=C1OC(CN)C(N)=NOC1=O NC=C(c1cn(O)cn1)S(=O)(=O)O CC1ON=C2C3=C(CNC=N3)OC21 C1#CCC2Nc3nsc(c32)COC1 CC1C=C2C=CCC(C2)NC=NO1 CC1=C2C=CC34CC1C1C(OC23)C14 C1=NC2=NC34CCCC3C4ON2N1 CC1=C2OC3(C(N)CC2C3O)C1O C#CC1=NN2NN=CC2=NC1C#C CC(=CN1N=CONC1=N)C1CO1 C=CC1=CN=C2C=NN=CN=C2O1 CCCn1c(=N)c2cccn2n1N C1=CC(C2C3NC2C2CCC23)C=C1 CCCON=C1N=CC(N)=C1N CC1C=NN2C1=CCC1C=NN=C12 CC12CC3=C4OC(CC41)C(N)(C3)C2 CNC1=C2C(OCCS2(=O)=O)OC1 C1=NC2=CCC3CCC4NC34C2N1 C#CCC=C1C=NC(=N)OC(=O)O1 O=C1C=C2CC34CC3C=NN4C2C1 Oc1cnn2cc3cnccn3c12 CC1=NC=CN(C=C(C#N)C=O)N1 c1nc2c(nc1C1=NNCC1)NC2 CC1C(=N)N=C2N=C(C3CC3)SN21 C=CC12C(=O)C=C3OC(OC31)C2C C=CC1=NC(=C(N)OCC)C(=N)N1 Cc1oc2c(c1Cl)C(O)=C(NO)C2 C1=NOCC=C1C1=CCCNC=N1 O=CCC1(CC=O)COC(NO)=N1 CC1=CN=C2C(C)=CON2NC1=N CC1=CC2=NC(C#CC#C1)CON2 CC12CCC3C(N)=NC1C3S2(=O)=O CC12CC1C13NC2CC1OCC3N CC=CN=C(Cc1csnn1)NO C#CCOC1=NC(C)=CC(=O)NO1 C=C1Nc2nc(CC)cc(O)c2O1 NCC12CCC3OC1C1=CC32NC1 CCC1=C(OC)C2=CNSC2=NO1 CC12C3CN=CN1N=CNC(=N)C32 ON=C1C2C3CC4N2CC=CC14N3 O=NC=C1c2c[nH]nc2NC2CC12 COC1(C)C(C)=C2C3CC4C2C4C31 CC1=C(NN=CN)C(=O)N=CC1=O CC1OC2CCC3C4(C)CC(C4)C123 O=C1C=C2CCN=C2N2CCC2=C1 CC1=CC2CN(O)C(=N2)CON=C1 NN=C1C=COCC(=NN)CC1 CC1CNC1C1N=Nc2[nH]cnc21 NN=CC=C1C=COC(C=NN)C1 CCc1cc(=N)c2c(nc1N)CC2 C=CC1=CC=C(N(N=C)C(N)=S)C1 CCC12C=CC(C)C13C(CO2)N3C Cc1nc(N)c(N=N)c2occc12 N=C1C=CNN2CCC2C1C=O CC1C2(C)Nn3ncc(=N)n3C12C O=CC1Cc2[nH]cnc(=O)c21 C=C(N)c1c(CN)ncnc1NC CN1OC23C(N)C=CC2(C1=N)C3O C#CCOc1nc2non(C)c-2n1 NCC12NCC3=C4CC1(N)C(O4)C32 CC12CC3C4=CC(CN1)(OC4)OC32 CN1C2=NNC3(C2)CC2CC3(N)C21 C=C1C=NC2=NC(=N)C(NC)=C2O1 CC1C2c3nocc3ONC=NN12 NC12CN3CCC4(CC=C1C4O)C32 O=C1C2NC34CC5CC3C1C2N5C4 C=CC1=C(C)c2[nH]cnc2CNN1 ON=C1C=CON2C1=NNC1CC12 O=C1ON=CC2(C#CC3CC13)CN2 CN1C2COC34CC5NC(C3)C5C214 N=CN=C1C=Nc2c3c(nn21)CC3 C1=C2CNN=C2N(c2ccns2)O1 C1=CC2CC3(OC1)OCCC31CC21 C=C1CN2C3C4=C(C=CCO4)C1C32 NC1C2C(=O)NC=C3OC4C1C4C32 CC12CC(CC3C4COCOC431)N2 NC12CC1NC1=CC(=NC=O)N=C12 C=C1C=CC23C(CC4CC42C1)N3C NC1C2C3OC4C(C13O)C42NC=O C=C(CO)C1NN=C2ON(O)C=C21 CC1C2C(CN)C3(C)C4C(CN13)N24 C=C1N=C(NN)C(CCO)(OC)O1 NC12C3OC4(CCOC(=O)C41)OC32 CC1=COC(=C2C=NOCO2)N=C1 CNC1C2NC34CC3N(C)N=C4C12 CC1=CN(C)C2=CNOC2=NC1=O C=C1CC(C)(O)c2sc1c(O)c2O NN=CCC(=NN)C1C2CCN1C2 CN1C=COCCC2=NC(=O)C1=N2 CC1C2CCN=C3C=CC(N3)C1N2 C=C1CC2OC3OCC24C1OCC34 CC12NC1C1COC=CC#CC2O1 C=C1C23CC(NC2=N)C(O3)S1(=O)=O C=C1CC#CC2=CN(OC1)C(=N)C2 OC12CC34C=CC1OC2C(CC3)N4 CC1(C(OC2CC2)S(=O)(=O)O)CN1 N=C1C2CC3(CN=CNN13)CC2=O C=C(OC)C(=C)C1=CC2(C=C1)CC2 CC1=C2CC3NC4(C2)CC3CC14 NC(=S)NC1=C(O)c2c[nH]nc2C1 OC=Cc1sccc1NN1CC1 CN=C1CC(N2CC2)C(NO)=C1C C=C1C2(C)C(C)CN3C(C2N)C13C C1#CC23CCNC2C3OCOC=C1 C=C1OC23C=CC(CO)(C2)C1=C3 CC(O)=C(NC=O)c1cocc1C O=C1CC2CC34CC3CC=C4N12 CN1CC2C3C(C=O)=C4CC3C2C41 CC12C=CC3(C=NN=C1)OC=C2O3 C=CCOC1=NC(C)CC(NO)=C1 C=C(OC12C=CCN(C1)C2)C(=O)O CC1=C2C3CC4(C)C(CN3)C(O1)C24 CC1=CC=NN=C(N2CCC=N2)N1 C1#CC2C=NNC(=CC=NC1)CC2 CCC1=C(NC=O)C(=CO)C=N1 C1=C2C3CC4(OC1)C2CC1OC3C14 C=C1C2=NN(C)CCON=C1N=C2 CC1C2C(=CN)c3c[nH]c(=N)n3C12 C=CC12C3NC4C3C(C(C)=O)N1C42 O=C1COCC=CN2C=NC(=N1)N2 CC12CCN=CC1=C(NN)C=CO2 CNC1C2N=C3NC4(C=CC3C4)C21 CC1CC(N)=NN2C(=O)C(O)C2C1 NC1=NC2C3C(=O)C=C(CO)C2C13 CC12CCN3CC34CC3OC3C14O2 N=C1C(=O)CONC2=C1C(=O)N=C2 CC1=NOC2(ON1)C1C3CC(O3)C12 C=C1OCC(O)=Cc2c1[nH]oc2=O C=C1OC(N)=C2C(N3CC3)=NOC12 O=C1NC2=NC3C4CC1(C=C2)C3O4 C=C1CN=C2N=NOC=C2C2CC12 CC12COC3C4C3(CN)N1CC42N NN=CC12CCOC3OC(C=C31)C2 C#CC1=C(NC)N=C2CNN=C2O1 CC12C=CC34NN=C(CC3N1)C24O NCC1=CC2=CC3C1C1C=CC2N13 CN1OCCOCC2=NC(=O)C1=N2 NC1C=CNC=NC2=NC3C(O2)C13 C1#CC2COC3=CC(ON=C1)OC32 O=C1COC=CC2C3COC(=N1)N23 CC12CC3OCC14OC(O2)C(=O)C34 CC1C2C=CCC(N)=NC1C(=O)C2 CCN=CC(=CNO)CCNC O=c1cc[nH]c2c1NN=CCON2 C=CC#CC1=NN=CN(N)C(N)=C1 C1=CC2=C(CO1)OC1(C=C2)CNC1 CCN(C)N=Cc1c[nH]c(N=N)c1 CC1=C2OC(=CC=CCCC2N)C1 O=C1CC2=NN1CC1CC1C=CC2 C#Cc1cc2n[nH]cc2nc1N=O O=c1ncc(Cl)c2n1C=CN=CN2 C=C1N=CNC(=N)C(C)=C(CC)N1 CC12CCN3C(CC4=NCCN41)C32 C=CC(C)CN=CN1NC=NC1=C CC1CCC2NN(C)C3=NC=NC312 N=C(NC(=NN)C1CNC1)C1CC1 C=C1C2=CC3(N)C4C2=NNC4C13N OC1C2N=C3CCCOCCN3C12 C=CC=CC1=CC(=CN=O)C(=N)N1 NC12C3NC4C1C2C1C3C1C41CO1 C1=C2C3C4CNC(C43)C23CNC1C3 COCC12C=CCC3(C1)OC=C2O3 Clc1csc(-c2cncnn2)c1Cl C1=CC2NNc3nsnc3CC2O1 NC1=C(C2C=CC3NC32)C(=O)CC1 C=C1CC2C3CC4=C1C2C3(N)C4 CN=c1c(OC)c2ccsn2n1O O=C1C=NC2=NCC(C(=O)O)C2=N1 O=C1N=C2C(=O)C3OCC3(O)C2=N1 N=C1N=COC2=CCC(O)CC2=N1 N#CC1CC23CC2(CC2C(O)C23)O1 C1#CC2=NCC3CC(CCNC1)N23 O=C1NC2=CC(CNN=COC2)O1 CC(=O)C=C1C(N)=CC(=N)N=C1N NN1SC2=NN=CCCC=CC1=C2 OC1CCC2C3C4=CC1(NCC4)C23 CC1=CC23CC2(C1)c1[nH]ncc1O3 CC1=NCC23Cc4[nH]ncc4C2N13 OC1(C2CNC=N2)CC12C=NOC2 CN1CC=C2CC3C1CC1(O)C2C31 CC1=CN2C(=NC1)NC1=C2COC1 NCC1=NN=Cc2cc(on2)C#C1 CC1=COC=C2CN=C(C#C1)N2O NC12CCC3C1C1=NC3(CN1)C2O CC=C(N)c1c[nH]c2c(N)n[nH]c12 CCNNC=C1C=Cc2ocnc21 C=C1N2SC=NC2=NOC2CC12O CC12CN3CC4C(C31)C(O2)S4(=O)=O C1=NC2=NC1=NCC1CCC1CO2 C=C1COC2C3(C)C(NN)=NCC123 CC1CC2c3c(NN)nsc3CC12 CC1=CCC2(c3sccc3Cl)OC12 C1=CCC(c2nc3ncoc3[nH]2)C1 N#CC1C(=N)C2=CNN=CC2C1=O N=CN1CC1C1N=Cc2c[nH]nc21 N=C1C2C(=O)NC3C(O)C23CN1N CC12NC(=NN)OC3C(C31)N1CC12 O=C1CCC2(CC2N2CCC=N2)O1 NC1=NNC2C3NC3(C=O)CC12O C=C1N=CNC(=N)C(=CNO)C1C ON1C=NOC2C3C4=CC1C(O4)C23 N=C1NC2=CC13OC=C1CNC2C13 CN=C1COC2CNC2C1=CNN C=NN1C(=C(C=O)CC)OC2CC21 OC1CC2(O)C=COC3=C2CC1C3 COn1[nH]c(=N)c2coc(CO)c21 CN1CC2CON=C3C2CC2C3C21 CC1NC(=N)n2cc3cn[nH]c3c21 OC12CC1(C1C=CC=C1)CC1NC12 N=C(N)CN1OC2(CCC2)OC1=N C=NOC1=NOCC(C)NC(N)=C1 CC1C2C1(C#N)NC1CCC3OC132 Cc1[nH]c(N=N)c(C)c1OC=O C=C1OC=C2C=COc3noc1c32 CC1(C2=C3CN=CN3NC2)CCN1 N#Cc1scc2c1NC(=N)N=CO2 C1=CC2C(=C1)C1CC13C2=CC1CN13 COC1=CC2=C(CN=C2)NC(=N)N1 C=Cc1cc2cs[nH]c-2nc1=O N=C1CCC2(C=CC(C3CO3)=C2)N1 O=C1NC2=NN=CCC#CCN1S2 Nc1c2c(=O)sn1CC=COCO2 CC12NCC3CC1C1=CC(=O)C32C1 CCC12NC(C)C3C4OC1=CC4C32 COC1C2NC(=O)C3C(N)=NC2C31 C#CC1=C2C3CC4OC(C1N3)C24C CC1N=C(N)c2cn3c(c21)CC3=O CC1ON=C2ON(N=CCN)C=C21 N=C(N)N1CC2=CCC=CN=C2N1 C1=NNCCC=C2CCC3C2N3C1 CC1=C2CCOC3C=CC(=CO1)C23 C=C1C2=NNC3C2CCN2C1C32 CC1=C(CO)C=NN=C2ONN=C21 C#CC1C(N)C12C1C3CC2(O)CC31 N#CC12CC#CC3CC3C#CC1O2 N#Cc1[nH]c(N=O)c2ocnc12 C#CC1CC2CC2NC(C=CN)=N1 N=C1CC2N(CC3=COCC32N)N1 CC1NCC(=N)C1=C1C=CC(=O)N1 N#CC1CC(C(=O)CC(N)=NO)C1 C1=COC(CONc2cc[nH]n2)C1 CC=NNC=CC(=NCCN)OC C=CN=C1Nc2nonc2OC1=C COC1CCCN=CC=CNO1 CC1C2OC34CC(C=COC13)C2C4 CC1(CC2(C3(N)CC3O)CO2)CO1 CC1C2(C)CN(C)C34CC3NCC124 NCC(=CC1(CN)OC=CO1)CN C=C1C2C3=NNC2(C)C(=O)C1(C)C3 CC12C=C3CCC=CCNC1C3C2 CC1(C)C2C(=O)C34NC=NC3C4C21 Cc1c(C)c2ccc(N)cn2c1O Cc1ncc2c(CC#N)[nH]ccc1-2 CC1N=CC2=C3NNCCC3OC21 C1=CC23C(OC1)C2C1CC2C(C1)C23 C=C(C)n1[nH]c(CC)c(N=O)c1=N O=C1CC2CC3CC4=CC1(NC4)C23 CC12NCC34CC1C(N3)C(=NN)C42 C=C1C=Nn2nc([nH]c2=O)CCO1 N=C1NC2C3C=C4C=CCC2C14O3 O=C1Oc2csc(C3=COCC3)c21 CC(=CC(=O)OC1CC1)NCCN OCC12CC1C13CC(CCN1)N2C3 CC1CCc2c(Cl)cc(=N)ccc21 NCC1CC23CC(=CC1O2)C=CO3 NC1=NC2C(C=O)(C=O)C2(CO)C1 O=CC12CC3C4=CC5C(C4N1)N5C32 CC12C3NC(C=O)C14CCN2C3C4 N=C1NCC2C3NC14CN2C3C4=O O=C1CC2=CN1N=COC=CO2 Cc1cc2cc(=O)sn2nc1NN CC1CN=CC2=CNNC3CC213 CCOC1=NC(=O)C(=N)C1=CNO C=C1OC23CNC(=NC1(C)C2N)C3 CN=C(C)N1NC=NC1=CC(C)N C=C1NC=NN1C(=NC1CC1)NC NC12CC3C4=CC5(O)C(OC41)C2C35 CC12C(CN)=CCN3C4C3C1OC42 COC1CN2C3=NNC4CC34CC12 COC=C1CC2=NOCC(N)=C2C1 CCC12CC3N4CC3(N)C1(CC)C42 S=C1NC=C2C(=CC3NC=NC23)N1 OC1CC12C=C1C3CC4C(N3)C1N42 C=c1[nH]c2cc(CN)[nH]c2c1=CO C=CC1COC(c2cn[nH]c2)=C1O C#CC1=CC2(C)C3=CC4C(O3)C1C42 CC1NCC2=CCC=C3C=CC1=C32 c1cc2n(n1)OC1=C(CNCC1)O2 C=C1C(=O)C2=C(C=O)CC3CC1N23 CC1=NN=C2C=C3C=NC(=N)N3C12 CC1C=C2OC3C4OC2C1(O4)C3N CN=CC(=CNO)Cc1ncsn1 N=C(Cc1c[nH]c2ocnc12)NO CC1=CC(=C2C=CNC2=O)N=CO1 O=CC1N2C3CC1(N1CCC1)CC32 C1=CC23C=CC4(CCOC42)N=C3N1 NCCC12C3NC4C(N)(CC41N)C32 N#CCC1=C2NNCCC2CN=C1 C=CC1ONc2nc(N)c(=O)[nH]c21 CC1OC(=O)C(N=CN)C1N=CN O=C1Nc2c(C3CCN3)oc(O)c21 C=CC1=CC2=CC3C=C2C1(O)C3N C1C2CC3C1OC3C2c1nnsn1 C#CC12OC3CC14OC3C2=CC4C CC1OC1Cc1c[nH]c2c1N=NC2 CC1=C2CCC1=NN1CC1C=CO2 CON=C(OC)c1c[nH]cc1N=N C1C2OC3OC2C2C3NC3CN2C13 CCNC(N=CNCCO)=NOC N#CC12OCC3OCC1(C(N)=O)C32 O=C1N=C2SC=CN2C2=NC=NC12 O=CC1(C2=NOC3OCC=C23)CO1 CN1N=CN=CC2=C1C=CC2CO O=C1C2=CNCCCC=C(O2)C1O CN=CN=C1N=C2SNC=C2CO1 CC12COCC=C(CN)C#CC1O2 O=CC1C2CC3C4=C(CCC4)C2N31 C=Nn1c(C)nc(C=CNN)c1C CC1(C2=CS(=O)(=O)C(C=O)=C2)CN1 C=C1CN2CC2c2sc1c(O)c2Cl CC1=NC23C(OCC2C3C)ON1C CC12NCC3(CC3)C13OC1C(O3)C12 CC12COC3C4(CCC4)OCC31O2 C=CC12OCC3OC1C1=CCC32O1 O=S1(=O)CC=CN2OCONC2=N1 CC1OC23CC(=CO2)C2(C)C1OC32 CC1C=C2C3OC14CC3C(C#N)C24 CC1CN2C3C(C)C3(O)CN2C1=O CN1N=C2OCC3OC=CC1C2O3 C1=NC2=CC34CN3CCC4CC2N1 C#CC12C3=COC4(C3)CN1C(C)C42 OC1CNC2COC3CCN4C1C234 NNC1=NCCCC2OCC2C#C1 C=CC1CC2N=C3SC(=O)ON3C12 CC12CC1C=C1N(O)C=NC(=N)N12 N=C1CC#CCC2=NC(=N1)NC=C2 C=C(OC)C(O)=Cc1sccc1C COC1C2N=C(CO)C=C(NN)C21 CCCC(=N)C1=C(C=O)NN=CC1 C1=CN=CNNC2=NCC=C(C1)C2 O=C1CC23C=NN=C(CC(C2)N1)O3 O=S1(=O)CC2CN3C=CNC3=NC21 NC1=NC23C=C(C(CO)C2)C1C3=O C=NNC(C)=CC(CO)=NCCN C#CC1C2CC3N4CCC(N12)C34C NC(CO)CN=CN=CC=CNO CCC=CC12CN=NC=CNN1C2 CC1(N)C=C2CC3C4C2=NOC4C31 C1=CC2CCC3CC(CN2N=C1)O3 C1=NC2COC3=CCC(CC3)(C2)N1 CC(=C(N)OCCC#N)S(C)(=O)=O CC12C=CC(C=C(C(O)CN)O1)O2 C=CC12C=NNC=C1C=NC2CN On1nc2nc1OC1CC(CC2)C1 OC12CC3=CCC1C1N=CNC3C12 O=S1(=O)CC2=NC3C=CC1(CN2)C3 ONc1cc2c(cn1)N1C=NCC21 C=CC12CC3=C4CCC(C1CO3)C42 C1=CC2C=C3OC4(CCC3O4)C2=C1 C=CC1(N=c2ncn(N)[nH]2)CC1C CC=C1OC23CC4=CC2C1CC3O4 Cc1nc(-c2cc(NO)ns2)c[nH]1 OC12C=NN=C3C1=NOC1C3OC12 OC12C3CNC14COC3C1C2N1C4 N=c1s[nH]c2cc3c(O)coc3n12 COC(=NC1CC12OCCO2)NN CCC#CCN1CCC(C=CN)=N1 CCC(O)=C1NC(=O)C(N)=CC1=O Cc1cc2c(C)[nH]oc-2c1C=O O=S1(=O)COC2C3C4=CC1(C=C4)C23 N=C1NC=NCCN2C3CC=C1C32 C=C1C=C2CN(C=NNCCO2)C1 CC1C2ON=C3N(C)OC1C32O NC1CCC2=CC3C4C5CN3C21C54 CN=C1C=CC(C2=CNCCO2)=N1 C=CC1=NC2=C(CCN2C)C1=O O=C1C2C3CC14CC2OC=C4CN3 NC1=NN=C2NC3C(=O)CC12C3O C=C(NC)c1occ(COC)c1O CC1=C2CC3(C)CC(C1)(O2)C(=N)N3 CC12CC34C=C(O1)C(O2)C3OCO4 COC1C(C)(CN)C12CNNC=N2 C=C1CC2NC3CC4N(CC14O)C23 C1=NNC2(C34CCCC3O4)CC2O1 Nc1[nH]cc2c1C1C(=O)C(=O)NN21 C#CC(C=C(N)CC1(C)CN1)=NN CCc1[nH]nc2c1C(N)=C(NO)C2 CN(NC=N)C(=N)C=C1C=CC=N1 OCC1CC2=CC3C4CC1(C2)CC34 O=COC1=NC2=NCCC2=C(O)N1 C=C(C)C(N)=C1N=CN=C(N)C1=O N=C1C2NC2C2CC3=C(OCO3)N12 CC12C3OCC14NC3C1C4COC12 CC1=NC=Cc2cnnc(c2)CN1 CC1=NCCCC2(C#N)ONC=C12 CC1C2=CCCC3CC4C(C2)C4C31 CC1OCC23C=CC4C(NC2)C43O1 NCC1=CCN=C(c2cn[nH]c2)O1 CC1=NC23C=CC(CC2)C(=CN1)C3 CC1=C2OC3C4CC3(N)C2(C=C1)O4 OC12CC3C=CCC4(C3)CC1C2C4 C=C(C)C1(C#N)CC2=CNOC2=N1 C=C(C)C1=NCC(C)C1=CNO C1=C2CN3CC3C3(CCC(C1)O3)O2 CC1CC2C3NN=C4NC1C2C43N CC1OC2C3=NC1(CN3)C2(C)O CC(CC1=NC=NC=NO1)C(=O)O CN=C1NC2C(N)=NCC2S1(=O)=O C=C(C)c1[nH]oc2nccc(=N)c1-2 C1=NOCC23NC2(C2CN2)CCC13 O=C1N=C(C(=O)NC2CC2)OC1=O C=CC1=NC2C(N(C)C)C2N(C)N1 CC1CC2CC3(CCN4C3C24C)O1 CC12OC=CC3(C=C1C(CN)C3)O2 O=CC=CC1C23CCOC12OCC3 CC12CC3OCCC#CC(OC31)O2 C1=CC2CNCC3OCCC(=C23)C1 COCC1N2CC3OC1(C)OC3C2 CNNC=NC1=C(OC)C(N)C=C1 OCC12C3CC4=CC3C3CC4C1C32 CC1CC=NN2C3C4CN4N=CC132 N=C1C=C(NO)C2CCC(CN2)O1 O=C1C2C(O)C3C4C5C=CC13N5C24 NC12C(O)C1C1C3C=C4CC3N1C42 C=C1CNN=C2N1Oc1cccn12 CN=C(C)C(C)=C(C)NOC=NO CNC1=C(N)S(=O)(=O)C(=O)C1=O CN1C(=O)C=C2NCC(O)C(O)=C21 NC=C1C(=O)Nc2c(NO)c[nH]c21 CCC1=NN=C2CONC(C=O)=C12 CN1CC2=NNCc3cnc(n32)C1 CN1NC(NC=N)=NC2CC1(C)C2 O=C1C2C3=CC=CC4(CCC2C14)C3 CC12C3C4CN1C2C(O4)C3CC=O N=C1N=C2CC(=O)C=C2N=CC1=O C1=C(C23CN4CC2C4CO3)OCC1 C=CC(CCO)C1=NCC(NO)=C1 CC1=C2N=CC1=NN=CC1CC2N1 CC12C(=O)C3=C4OCC1C4CN2C3 OCC1=Nc2scc(O)c2C=NO1 Cc1[nH]c2occ(C)c2c1C=CN CC1CN2CC13OC1OC3C2C1O CC1=COC2=NCCNC2=C1NO C1=NC2(CCNN1)C1CC2OCO1 Cc1ccn2c1C1=C(O)CC=C1C2 C=C1C2=CN=C1NOCOC(C)=C2 CC1C(=O)CCON=C2NN=C1N2 CC1=NNC(C)=C2CN(C)N=C12 NC1CN=C2N=CN(N2)C2CC1C2 C=CC(C=NN=C1C=CN=C1)CN N#CC12CC3OC4=CCC3N1C42 NN1C2=NC3C4CCC1(C=C2)C3C4 CCC12CC1C1(C)C(=CC3NC31)O2 CC1=C2CCCN=CNC3C1CC23 CC(C)C1(C=O)N=Nc2c[nH]nc21 CON=c1[nH]c2nn3c(c2o1)CC3 CC1C2C(N)C3C2c2scnc2N13 NCC1=CC(N)=C2CNN=C2N=C1 CC1(N)C=NN(C=C2C=NN=C2)C1 CN1C2C1(C)CC1CCC3(C)CC123 CN1C2=CSC1=NCCC(=O)NC2 Oc1cc2c(Cl)c(c1Cl)OCC=C2 NN=C1C2C=C3COCC1N1C3C21 C=NN1C2=CC=NOCCC1CO2 C=C1OC23COC4=CC(O2)C1C43O CC(O)=Cc1cnc(C)n1C(=N)N C1=NOC2C3NC=NC3C3(CN3)C12 CC1=C2C=CC3(C)C4CC(C14)C23N NC1=NCC2=C(C1O)C1CC2C1=O CC1=NC(=CO)C(C(O)C(=N)N)=N1 CC12CNC3=C(C#N)CN(C1)C32C CC12CCC=NN=CC(=NCC1)N2 NC12CNC3C1C1OC24COC1C34 CC1=CC23OCC(C)(O2)C(=C1)C3N CC1(C=O)C=Cc2oc1c(O)c2Cl NC12CC34NCC=C3C1C1NC2C14 O=C1C=CC23C4OC=CC4=CC2N13 CC12C(N)=NC3CCC1(C=O)C2C3 O=C1COC=C2CN=C(CO2)NO1 OC12C=C3C4CC1OC4C2C1OC31 NC1=NC2C(=O)C(ON=C1)C2CO CN1C2=COC1=NCC=CC(=N)N2 N=C1n2cnc(O)c2NC12COC2 C#CC#CC(O)=Cc1sccc1C CC1C#CC2C3C=CC(CO1)OC23 C=CC12COC3=C1C(N)C(C3)C2=C CC12OCC3(CO3)C13OC1C(O3)C12 C#CC12C3=CCCC4(COC1C42)O3 O=C1NC2CNN=CNC=C1OC2 CCCC12NC(=O)C3C(N=C1N)C32 CC1C(=O)N(N)C(=O)C(C)C1=NN C=C1C=NN2C3C(C)(C#N)OCC132 CC(=N)NC=CC(C=C(C)N)=NN CCc1c(CO)[nH]c2c1CCN=N2 C1=NC2=CC3CC(CCCC2N1)O3 CC1CN=C2C(Cl)=CC(N)=C(N)N21 CCC=CC1=NC=NOS(=O)(=O)O1 NC1C2OC3C4C2=NNC13CC4O CN=C(N)C12C(=O)C(C=C1C)N2C CCc1cn2c(=NC=N)onc2s1 O=C1CC2OCCC3OCC4C1C324 C=CCC1=C2NC(=O)C=C2CON1 CCC1=CC(NOC)=NOC=N1 CN1Cc2c3c(c(O)n2C1=N)NC3 NCCC1=CC=NCC(CO)NN1 CCC12COC3C4C=C1C(N)C4C32 CC1=CC(=CO)C(=O)C(=O)C(=N)N1 CC1(C)C(C)(C)C12ONC(=N)NO2 CN1C=NC2C3CC(NC=N3)C2C1 N#Cc1scc2c1CCC(NO)=C2 CN1C(N)=CC(=O)N=C2C=CON21 CC12CC3(O)CC(C=O)C(=NO1)C32 NC1=NC2C3C(N)C1NC23C(=O)O O=C1NCC2CC=CCNC=C1O2 CNC1=CC2=NOC(C2)OCCN1 C#CC1=CN2CC3(CC3)N=C2CC1 CONC(C(=O)O)=C1C=CNC1=O CC1C2=C(CC3CN23)C(=N)N1C=O C#CC1C(O)=Cc2oc(C)c(Cl)c21 C=C1C(C=NC)=CNN2CCC12 CC1CC2=CC3(CCC(C2)NC3)O1 OC1C2(O)C3CC3(O)C3(CN3)C12O CC12CC3c4c(N)c[nH]c4C1C3O2 CON1CCN2CCC3C(C1=O)C32 N=C1ON=COC2=CC(C=C2)N1N CN1C(=O)N2N3CC3C(O)C23CC13 CC1C(=O)C2(C)OCCN1CCO2 CC1N=NC2=CN=CNC=C2C1=O NCC1=CC23C(C1)C2NC1CNC13 CC12C(N)C3C4CC3(OC=O)C1N42 CC12CC=CCC3=NN=C(C1)C3O2 C1=NC2=NOCC2=C(N2CC2)O1 Nc1ncnnc(OC2CC2)c1=O Cc1cc2n(n1)-c1c([nH]oc1=O)C2 Cc1cc(NNCC(=O)C#N)n[nH]1 OC1CC2=NCC#CCC=C1N2 C1=CCN=CNC(c2ncns2)=C1 C#CC12C3=CN(C=N)C1CN2CC3 CN1C2CCC3NC(N)=CC(=O)C321 CC12CC3=C(O1)C(C#N)(C=C3)C2 CC1=COC23CN4CC2CNC13C4 NC1CC12C1OC3C(O1)C32CO CN1OC(C(N)C2(C)CN2)OC1=N C=C1NC2=NNC3COC1(O2)C3=C CCC(C)Nc1n[nH]cc1C=CN CC12CC3=C(O1)C(C#N)(CCO3)C2 C#CC12OCC3(C=C1C)NCC=C32 N=C1NC=CC=NOCC1=CNO C(=COC=C1CCCO1)CN1CC1 C=C1CNNC(C)=NC2=NC=C1C2 CC1=CCC2=CC(=NCC1)ON2 C=C(C12C=NN=CC1N2)S(=O)(=O)O CN(C)C12C(N)=NC3C(=O)NC1C32 C1#CCC23CNCC2C3ON=CC1 O=c1cc(C2CC2)[nH]c(NO)c1Cl CC12C3C=NN4CC4C31CC1CN12 C=CC1C=CCN2SC=C(Cl)C2=N1 CC1(N)C2CC3C1C1NN=C2C31O C1CC1C12COC1c1[nH]nnc1O2 O=C1CC23N=C(N1)C1CC2OCC13 O=C1OC23CC4C1=CC2C4CC3=O C#CC1=NNC2=C(O1)S(=O)(=O)N=C2 CNC(=O)C(=Cc1cccs1)NN N#CC1(C=C2OC=NN2C=O)CO1 CC1C2C3CC4=NNCC2(C)C4N13 CN=C1CC(OC)OC(N(C)N)=N1 O=CCC12C3=CCC4(CNC1C42)O3 O=S1(=O)C=C(C2CN2)NC1=CO C=C1OCC=NNC=CC(=N)C1=O ON1C2=NOCC1CCCC=NN2 CN1CC(=O)ON2CC3(CC3)N=C12 N#CCC1=Cc2sccc2CNN1 NC12CC3CCOC4C=C1CC4C32 NC12CC3CC4C1C1C(O)C2C3N41 CCC(=N)C1=CNN(C=N)C=C1 NC12C=CC(CC1)N=C1ONC=C12 C=CC(=NCC)N1NC(C)=NC1=C CNC1C=C2C3CC14C(=O)C3CC24 CC1NCC2CC3(C=NNC=N3)C21 COC1=NN=C(C=C(C)N)N(C)O1 C1=NCC2CC2CN=C2C=NNN12 C1=NC=C2CCCNN=CC(C2)N1 CCC12C3CC4C(N41)C3(O)C2(C)N C1=CC2=C3C=NOC34CNC2(C1)C4 C=C1CNC23C4=NNCC4=CC2C13 c1nncn1NCC12CNC(C1)C2 CCC1=C(N2CC2)N=C(N)C1=O O=S1(=O)C2=C(CC13CCN3)OCO2 S=C(NCC1CC1)Nc1cnns1 C=C(CC(C=NOC)=CN)NC=N CC1=CCN2CC(=NNC1)C(=N)N2 C=CC12CC3OC(=NN1)C1NC3C12 C1=NNC23CCC(C4=NOCC42)C13 C=C(OC(C)=O)N(C)C(=N)N=CN CC1(O)C2=C3CC4NC(C2)C1C4C3 C1=NNC2CNC13CC21CC3CN1 NC1C(O)C1NC=NC=COC=O CN=CN=CC1=CNN=C(C=O)O1 C=C1C(N)=NN(C)C(C=O)=C1C#N C1=CCC2=CC3(C=C1)C=CC1C2N13 CCC1CC1C1=C(NNC)CN=C1 CC1CC#CCN=C2NNC3C2C13 COC(C)(C)C(O)=Cc1ccc[nH]1 NC1=NN(CC=O)C(CO)(CO)C1 OC1C2N=C3C=CNN3OC1C2O N=c1occ(C=C(O)CO)n1C=O O=C1C2CC2N2c3[nH]ccc3CN12 NC1C=CC23CN4C(CN2)C3(N)C14 C1=NNCC2CNC3CC1C=C3C2 C=C(N=C(NN)C1OCCO1)OC CC1=NN=CC2=C(N)CC(C#C1)O2 CN=C1NC(=N)C=C(NO)C12CO2 CN1NC(=N)C#CCC2CN=C1N2 CC12N=C3NCC(C1O)C1C3C12O C#CC1NC(OC)=C2C(C)=NOC21 OCC1=NSN2C1=NC1C(O)C12 CC1=CC(=CO)Oc2ccoc21 C=C1C2C=C3C(C2)NCC13C(C)N C=C1C(C)N=C2SC(N)=C(CC)N12 N=C(N=C1NC2CC(C2)O1)C1CN1 CC1(C2=CNNC(=S)NC2=O)CN1 NC1CC2N3C4CC(C5OC54)C23C1 CC12C3=CCCC(=O)C34CC1C2O4 CC12CC3OC=C(C(O)C1=O)C32O C1=CC2(C3CO3)NC13COC=C2C3 C=C1C2=COC=C(C)C#CC1C=C2 C=CC1=CC(NC=O)=NC=CN1 C=CC1CN=CC2=C(CCC2)NN1 C=C1C(O)CN2CC(CO)C(=O)N12 C#CCNC1CN=Cc2c[nH]nc21 NC1=NC2C3CC1(O)CC(=O)OC32 N=C1CC2CNCC3(O)C(NN1)C23 CC12OCC3=CC1N1CC3=CC12C CC1(N2NCCNC2=NC=N)CC1 O=C(C#CC1CC2(CC2)CO1)NO CC1N=C2C(=CON2O)C2C1N2C C1=CC23CC4(CO2)C(C1)OCC4O3 CONC1=NC(=CC=O)C=CC=N1 NC1=C2C=NC=NN=C2NCC=C1 C#CC12CCC1C1=C(CN(C)C1)O2 C=CNC(Cc1cc(Cl)c[nH]1)=NO C#CCCN=C1ONC=NN1C CC1=C2CC3(CCC2(CN)N3)C1 Cn1[nH]c(=NCC(C)(C)O)sc1=O OC12CCN=NC=C1NN1CC12 CC12CCCNC(=O)NC(=NC1)N2 CC1C2OC3=CCC14OCC=C2C34 CC1C2C=C3N=C(N)CC31OC2=O CC1=C2N(C)CCC2(C)N(C)N=C1 CN=C1C2CC3(CN2CC3O)N1N CC1NC(N)=C2C1=Nc1ncoc12 CC1=NC(N)=C(C=O)N(C=O)O1 C#CC12CC1CN1C(=N)NSC1=N2 O=C1C=NC=C1N(O)C1=NC=NC1 N#CC1N=C2C=CC3COCC1N23 CON1C(=N)C23CON=C(O2)C1C3 N=C1NCC2=C(NS1(=O)=O)OCO2 C=NN=c1sn(N)c(C#CC)c1O N=C1C(O)C2=CCOCCNN1C2 CC1CC(N=CC=CNNC=O)C1 NC1=NC2C3OC2C1CC(O)C3=O C=CN1NC(=C(C)C(C)=O)NC1=N CC1CNc2[nH]cc3c2C1ON=C3 CC12CC3CCC1(CCC21CN1)N3 C#CC12CC1N(O)C(OCOC)=N2 NCC1OCCn2nc(NO)cc21 N#CC1=Nc2cc(O)oc2C1=CO C#CC=CC1=NC(=CO)C(N)=C1C CNN=C1C=CNC(C#N)=C(N)O1 NC1C2NCC3C2C2C4CCC13N42 COC1=C2CN(C(C)C)N=C2C=N1 CCC1=NN=C2C3(N)CC(C3)C12O CC1=Cc2c(C)sc(=N)n2NC=C1 CC1N2C(=O)C3N4CCCC34C12C NC(=O)C(N)=C1N=CC=COC1=O N=C1CN(O)C(C23CCNC2C3)=N1 C=C1CC2OC3=CCNC34CC24C1 CN1C(OC(N)=O)=NC2C1C2(C)O CN1ON=C2CNC3CC3ON=C21 NC=C1CC2NS(=O)(=O)C2N=C1N CC1(C)Oc2c(C(=O)CO)n[nH]c21 C=C1C2(C#N)CCNC2=CS1(=O)=O CC12CC3=CC1C1C=CC(O)(C2)C31 CCON1C=CC23OC2C(=N)N=C13 CC12OC3(C#N)C(=O)C1NC=NC32 C1=CC23OC=CC4NC2CC(=C1)C43 CC(C)C1=C2CON=C2N=CC=N1 CC1=CN2CC3CCC2(CC1=O)C3 NC(=S)N1CC2C(=O)C3CN=C1N32 CCC1(O)CC2CC3=CC1(C=C3)N2 CN1C2C3C=CC4=CCC(N)(C42)C31 OC1C2OC3C(O)C34NC(=S)NC124 N#CC(C(=O)CCC=O)C(N)=NO CC1=CC2CN=CN=CNC(=C1)C2 C1=CC2C=C3CC(CC1)ON=C3O2 C#CCC1OC23CC(=CO2)CC1C3 C#Cc1cc2c(=O)nn[nH]n2c1O NC1(c2cn(O)cc(O)c2=O)CC1 C=C1C2=NCC13C=C(C)C(C3)N2N CC12CC=NOC(=N)NC(=NC1)C2 NC(CC#CCO)=NOCCC=O C=CN1OC(=O)NC(=C(C)N)C1=O Clc1c2nsc1OCC=CC#C2 Nc1cc(C23CC2NC(=S)N3)sn1 CN1SC2=NOCCCC2=C1CN N=C1CN=C2C(=CN)C3(O)CC3N12 O=C1OC2CCC(C13CO3)S2(=O)=O CN1C2=NC(=N)N(N)C2=CC12CC2 CNC1C=CC23C(C(C)=NN2C)C13 NC12CC3=CC14CCC2NC4CC3 C1=C2COC13CC2C1=C3OCOC1 CC1CNC(N=C2NC=CCO2)=N1 OC1CC2ON=CC=NN=C1O2 CN1NCC2COC(=CCC1=N)C2 C=CC12CC(C(=NN)O1)C(=NN)O2 CC(=O)C1=Cc2cscc2C=NN1 COC(C=O)=C1C=C(C#N)C(C)=N1 C1=NNCC23CC4CN(C2)CC14O3 CN=CC=C(CNC=N)NN1CC1 OCC1ON=C2C1=CON2N1CC1 CC1CC2=CCC3C=CC=C(O1)C23 C1=CC2OC1=CNC=NCC21CN1 CC(=N)C1=C(C2CC2)NNC(=N)C1 C=C1C=CC=C2CCN(C=C1)C2=N CCC1=C2NC(=O)C(C#N)=C2N=N1 CN1N=C2C3CC1(CC3(C)N)C2O Cc1c2cnn1N=CNC=CC2N CC(C=CNCC(=O)C=CN)=NO CC(C=O)c1csc2c1CC(N)=N2 CC12CN=C(n3cnsc3=O)N1C2 O=C1NN2N=CSC2=NCC2CC12 CC12CNC=NC3=NOCC31C2O S=C1NC2=CC=CC3OCC(N1)C23 CC1=CC2=NNCCCN2C=C1N C#CCC(=CO)c1concc1=O NN=CC12CC3ON=C(C4OC41)C32 CC(C1Cc2[nH]nnc21)N(O)C=O CC1=NOC2OC(=CC2N)COC1 CN=C(C)C(=CNO)CC1CCN1 CC12NC(=O)C1CN=C1ONC=C12 CC1=CC2=NCC=CON2C(C)=C1 C#Cc1n[nH]c2c1N=NC2=NCC O=S1(=O)C=C(N2C=NCC=N2)C=N1 CN1C(=CNC(N)=S)C=CS1(=O)=O CC1=CC(=N)C=C(C=O)NN2CC12 Cc1nn(N)cc(S(=O)(=O)O)c1=O C=C1C=C(C(N)=NN)C2C(=O)OC12 OC12CC=C3CC4OC1C4C=C3C2 CC1OCC23C4CCOC4=NN2C13 O=C1OC23C=C(CC4OC2C14)OC3 OCC1=CCCN=C2NC(=NO2)O1 OC12CC1Nn1c2nc2scnc21 Nc1c(O)ccc2[nH]sc(=NO)c12 ON=C1NOC23OC(C=C12)C1NC13 Cn1c(C2CO2)cc2c1NN=CN2 COC1C=C2CC3(COC(C3)O2)C1 CC12CC34CC=C1C3CC(C4)C2=O CC1C#CC(=O)CN2C=NC(=N1)S2 CCCC1=NOc2c(C)csc2N1 N=C1C2=C(CC3CN13)OC=CC2 Nc1[nH]c2c3c1NCCC3=COC2 N=C1CCNC2=NCCC2=C(N)N1 CC1=CC2C=C3CC(OC1)OC3C2 C=C1C2CC3CC14COC=C3C2N4 N=C1C2=CNN=CC2CNS1(=O)=O O=C1CC(C2=CS(=O)(=O)C=N2)C1O C=CC12C=CC(=NNC=NNC1)O2 NN=CC(C=NN)C1CCC(O)C1 C#CC1CCON=C2C(N)=NSN21 CC1=C2C=NC(C)C(C)N2C=NN1 OC1CC2C3=C1COC3CN1CC21 NC1CC=C2CC34CN=CN3C4C21 Cc1c(O)c(=N)n(C)c(O)cc1=N CC12OCC3CCOCC#CC1C32 C1=C2CC3CC2C2(O1)C1CN(C1)C32 C=CC12NCC34CC(=NC1C3)NC42 CCCC1=CC2C(C(OC)C1)N2C CC12CCC3CC14OC3C1C4CN12 CCC1(O)C2CC3=C(O2)C1(C)NC3 CCC1=C2CC(CO2)OCCNC1 C=C1C2(CN2)C2C(O)C1(N)C2NC C#CCC#CC1=NC=CC(=N)NO1 CC12C3CN=C4NOC(O3)C1(N)C42 CN(C)c1[nH]cc2c1C(CO)N=N2 O=c1[nH][nH]c2c1C=C1CC2CCO1 C#CCC1=NC(=N)N(C)C=C(C)O1 N#CC1C2CC3=NNC4CC3N2C41 C=CN1C=CCCNC2=CC1=NC2 C=C1CNC23CC4(C)C(C12)C4(N)C3 CNc1cc(N=O)c(C2CN2)[nH]1 CC1C2=NCCC13CCC(C3)NN2 C#CC1CN2C=CNC(=N)C=C2N1 C=C(N)c1c(O)cccc1C=CC NC1CC2C3=C(CCN=C3)NOC12 C=C1C=CC(=C(C2CN2)C2CN2)C1 NN1C2CC2(CO)OC=CS1(=O)=O C1=CCC2C(C1)C1(CO1)CC21CO1 O=C1OCC(=O)N2C=CNC=C12 CC12CC3CC34C(=O)C=CC14CO2 N=C1N=C2C(=CC3(CC3)C3OC23)N1 C#Cc1[nH]n(C)c(=O)c1C(O)=CC CCC12COC(=O)C13C(N)=NOC23 CC(O)=Cc1c(C)csc1C(=N)N CC=CCC1=C(C=O)NN=CN=C1 NC1C2=CC=C1CNNC(=O)C#C2 CC=NN=C1C=CNC(CO)=CN1 CC1C(=NO)Nc2c1n(C)[nH]c2=O CCC1C2=CC3C4CC(C)C2C4N13 CC1C2C=C3CCC(=O)C2N2C3C12 Cc1scc2c1-c1ncc(=O)[nH]c1-2 C#CC(O)C1=NOC=NC(CC)=C1 O=C1C2C3CC14CC2OC4(CO)O3 COC1=CC2=C(C1)N=C(C)C2=NN NC12CC1C13CCC=C(O1)C2OC3 C=CCN1C(C)C(OC)(OC)C1C C=C1c2nc(n[nH]2)CC#CC2CC12 CN=C1N=C2NC13C1CCC3C2N1 C#CC(=O)C(O)=C(C)c1ccsc1 CC#CC1N2NN=CC2=NS1(=O)=O CN=CC(=CNO)Cc1ncc[nH]1 CC1(N)C2=CC3(COC2)COC1O3 C1=NC2=NOC3CC(CO3)C2=N1 CC12CC3OC4CC1CNC42C3=O CC1CN=C2C(CO)=C(Cl)C=NN21 O=C1OC2C3=CC14OC1C(C3)C1C24 Cc1cnn2c1C1(C=N2)CNC1=O C#CC12CC3C4C5NC5C3(CC41)O2 CCC12OC3C4CC1(O)CC4=CC32 C=C1C2=C3CC4C(O3)C1(C)C4C2=O C#CC=Cc1nnc2n(C)scc1-2 NC12C=CCOC3CC=C(C=C1)C32 Oc1c2c(Cl)cn1N=CCCCO2 NN1C2=NNC3C=CC1(CCN2)C3 C1=COC2(CC2CC2COCO2)O1 OC=Cc1cn2[nH]cc(Cl)c2c1O CCC1C2C=C3C(ON=CC31O)O2 C#CCOC1=NC=CS(=O)(=O)NO1 C1=CC2N=CN=C3OCON3C2C1 CCC1OCC1N=CC=C(C)NO CN=C1C=CN=CN=C2CN1C=N2 C1#CC2CC(C2)C2CCC3C2N3C1 C1=NNC2CC3C4OC3C12C41CO1 C=C1CN2C(=CNCS2(=O)=O)C1=O CNC(=NN)N1CCC2N1C2(C)C C=CC12C=CCC1=C1C=CN=C1N2 C#CCC12C3CC4C1C2C(C3)N4C O=CC12CC34CC1CC=C3C2CO4 CC=CC1CC(=NN)N=C(NN)C1 CC1=NN2CC3=CCC4NC34C2C1 CCCC1=C(CN)C(=N)C(=O)N1 C#CC1(N)C2N=C3C4CC4NN3C21 CCCC(C)=NN=c1o[nH][nH]c1=O C=NOc1onc(C(C)CO)c1Cl CC1=C2C3OC4CC2(CC43)NC1=O CC12CC(=O)NC13C(N)=NOC23 CNC1=C(OC)N2CCCN=C2N1 CNC1C2(C)ON=C(N)C(=O)C12O C=C1C=C2CC3CC24OCC3C14 CC12C=CC3=C1C1(CNC3C1)OC2 O=Nc1[nH]c(CCO)c2ncsc12 CC1C#CCC2(CNC=N1)CN2 C=CC(=C)C1(C)C2C(=CN)C=NN21 O=CC12C3=CC4(CC3)C(O)C1CN42 C=C1OC23C=C(C=O)C(C=C1C2)O3 CC12CC1C1CNCC13C(N)C23O CC12NN=C3NC4C1C4(C)C(N)C32 CC(C)(C)C1=C(NO)CCCN=C1 NC1=NCC2C1N2CC(=O)C=NO C=C(CC1=NOC=NC=N1)OCC CC1(O)C2C3NC14CC(N)C=C4C32 CCCC1=C2CON=C2N=C(N)O1 Clc1conc1-c1[nH]nc2c1CN2 CC(=N)N=C1CN(N2CC2)C(C)=N1 C=Cn1c2c(c(=O)n1N)C(=C)C=N2 C=NN=c1c(O)cc(=N)on1CC O=C1C2=COC3C4C=CC13N(C2)C4 CC12CC=C3C4CCC=C4C(O1)C32 NC1=C2C(=NN3CC(=O)C23)N=CO1 C=C1COC=CCC2=NC(=O)C1=C2 CC1=CN(N(C)C)C(=N)N=CO1 CC(=O)N1OC=C2C(=O)C(=N)N=C21 CN1CC2NCC13C1CC1N1CC213 CC12CC3OC(=O)C14CC(O2)C3N4 C1=NCC2=NCC(=C3CCCC3)N12 ON=C1C2C=COC3=CC4C1N4C32 CC1NN=CC=C1N=CC=CNN O=C1OC2C3CCC24CC1=CC4C3 CC1=CC2(OC3CC3O2)C2(CO2)C1 CC12C3OC(CC4(N)CC41O)OC32 C#CCN1NN=C2C1=NCC2C=C Cc1nn(O)sc1=NN(C)C(C)C C#CC1=CN=C2NC(=NC)CN=C12 CC12CC3C4=COC1(C=NNC32)O4 O=CC12CC(C1)C(=C1C=CC=C1)O2 CCC1=CC2(C)C3N2C2CNC13C2 CC1(N)C2CC3C=CC1(C=C3)CN2 C=C1C=CN(NC2=NC=CC2)C1=N C=C1C=C(c2c[nH]nc2NN)CC1 N#CC12C=CCC1c1c2[nH]sc1=N N=C1NCC#CCC=CC1=C(N)N NCC12CN1C1=NOCOC1=C2N NC1C2=CC3C4C=CC13NC4C=C2 N=C1CC23OC4CNC4C2(N)C3N1 CC1=C(CN)NC2(CN)C=NN=C12 C=C1CNCC2=C1NCC=CC2=O N=c1nccc2c(=O)[nH]c(O)cn12 CC1C2(O)CC3NC34C(O)CNC124 O=C1C2C=C3C(C2)NN=CC13O CN1CC2C(=N1)C1(N)C3OC2OC31 NC(=O)C(=CN=C1N=CC=N1)CO CC1NC=C2C=C(C#N)C(=O)N=C21 C=CC12CNC13C(=NNC3C)NN2 CC1CON=C2C=CC3N(C=N)C213 C1=CC(C23COC=C2C=NN3)C=C1 C=C1C2=CNC=NCCC(C2)C1C CCC1CCN=C2C1=NC=NN2O CC12C=C3C4NC(=O)C(O)(C3C1)C42 C=C1C2C3C=CC4NCC2NC14C3 COC12OCC3(C=C1NC=N3)C2O CN=CC(C)=CNOCC(C)N NC1=NNC23C=CCC2(O)C(=O)C13 CCC12CCC3=CC(NC)=NC31C2 NC1C(N)C23NCC4CC42NCC13 CC1=C2CN3C4CC2N2CC2C4C13 CC1OC2(C)CC3(O)C=C1C2C3C Cn1ncc(=Nc2ccoc2)n1O C=C1C(N)=NC2C(=O)N(N=CC)C12 CNC1CC12CC13CCCC1(C2)O3 N#CC1=C(CC=NO)C=CNN=C1 O=C(CC1CC=C2COC=C21)NO C=CC(=C)C(=C)n1oc(=O)c(=O)o1 C#Cc1[nH]c(=N)[nH]c1C=CNNC CC12CC34CC3OCC4(CC1O)N2 CC1=C2CNC34COC(OC23)C14O NC12COC34C(O)C3NCC14C2O CCC(CN)c1cc(C)c(N=O)[nH]1 CC1(C)OC23COC4=CC(O2)C1C43 CC=C1Cn2c(O)c3c(c2O1)CO3 OC12CC3=CC1C1NC3C3(CN3)C12 CC(O)C1(N)C2(O)C3CC(C3)C12O NC1C=C2CC1=CC1CC1CCO2 OC1CCC2NN=C3NNCC1=C32 OC12C3CCC1CC1CC2CC1C3 CC1=CC(C2=NOC=NC=N2)C=C1 CC1CN=CC(C(=O)C=O)=CNO1 CC12COC=C3C4C1N4C(C#N)C32 N=C1C2=COCCCCN1C(=O)N2 CCC1(C23C=CC4C(O2)C4O3)CC1 NC12CCNC13CC3(C1CO1)OC2 NC12C=CC3=CC(C=CC1)N(C3)C2 CC1C=COCOC2=NN1C=NN2 CC1=C(N)NCC(N(C)C)=CC1=O NCC1(O)C2C3C4NN=CC41CN32 C=C1OC=C2CC3=C(C4CC3C4)C12 O=C1CC2CC3CC1C21CCC=C31 Oc1snc2c1CN1CC(C1)NN2 CC1=CC23OCOC2C12CN=C3N2 CC1=C2CCC3C4C=CC(OC24)C13 NC1=CC(CC2OCCO2)=NOC1 N=C(CNc1scc2c1CC2)NO Cc1ccn(-c2cc(=O)n(O)[nH]2)n1 N=C1N=C2C(=CNC23C=CC=C3)N1 C=C(C1=NC(=N)C(CC)=C1)C1CO1 CC12C=CC3C4=CC1(N)C1C4C1N32 NCC12COC(=CCOC=NN1)C2 NC1=NC2(CO)C3CC(C1)C(=O)C32 CC1Oc2cnc3c(c21)OS3(=O)=O CN=C1C=CC(C)=C(OC)C1=CO C=C1C2NC3CC4=CC(=O)C13OC42 CC12C#CC(O)C#CC=C(C=C1)O2 CC1(N)C2=NNC3C4OC2=CC4C31 N=C(CN)N=C(N)CCCC(=O)O NCC=NN=c1oc2c(o1)NCC2 CON1CC(C2(N=CN)CC2)C1=O C=C1CC(O)c2c3c(nn21)NOC3 O=S(=O)(O)n1nnc2c1CCC=C2 N=C1NC=CCn2occ(c2=O)N1 CC1C2=NNC13C=CC(CN)(C3)O2 CC12CC3OC14OC3C2CC1OC14 NN=C1OCC(C2CN2)(C2CN2)O1 CN1NCC=CC(=N)N2CCC1=N2 CC1(O)C2(CO2)C(=N)N(N)S1(=O)=O NC1CCn2ccc(S(N)(=O)=O)c21 O=CC(=O)NC=C1NC=C(C=O)O1 C=CCCC1=C(NN)C(C)CN=N1 Cc1[nH]c(N=N)c2c1C=NNCC2 CC1=Nc2occ(c2N)CCCN1 CC(O)=Cc1cnc2n1CCC=C2 O=C1N=COC1=C1OCC2CC1C2 CC1=CN2CC(C)C3(CC3)N=C2S1 C=C1C2C3=CC=CC14NC2C(=O)C34
REMARK  0 active torsions:
REMARK  status: ('A' for Active; 'I' for Inactive)
REMARK                            x       y       z     vdW  Elec       q    Type
REMARK                         _______ _______ _______ _____ _____    ______ ____
ROOT
ATOM      1  C   UNL     1       1.360  -1.253   0.476  0.00  0.00    +0.000 C 
ATOM      2  C   UNL     1       0.640  -1.084  -0.635  0.00  0.00    +0.000 C 
ATOM      3  C   UNL     1      -0.767  -1.023  -0.300  0.00  0.00    +0.000 C 
ATOM      4  C   UNL     1      -0.927  -0.707   1.005  0.00  0.00    +0.000 C 
ATOM      5  C   UNL     1       0.329  -1.353   1.532  0.00  0.00    +0.000 C 
ATOM      6  N   UNL     1       0.200  -2.282   2.446  0.00  0.00    +0.000 NA
ATOM      7  N   UNL     1       0.656  -3.568   1.942  0.00  0.00    +0.000 NA
ATOM      8  C   UNL     1      -0.207  -4.041   1.082  0.00  0.00    +0.000 C 
ATOM      9  S   UNL     1       0.110  -5.182  -0.202  0.00  0.00    +0.000 S 
ATOM     10  N   UNL     1      -0.673  -4.110  -1.308  0.00  0.00    +0.000 NA
ATOM     11  C   UNL     1      -1.272  -3.221  -0.570  0.00  0.00    +0.000 C 
ATOM     12  O   UNL     1      -1.624  -1.946  -0.979  0.00  0.00    +0.000 OA
ATOM     13  O   UNL     1      -1.345  -3.376   0.780  0.00  0.00    +0.000 OA
ENDROOT
TORSDOF 0
