REMARK  Name = 
REMARK  4 active torsions:
REMARK  status: ('A' for Active; 'I' for Inactive)
REMARK    1  A    between atoms: N_1  and  S_2
REMARK    2  A    between atoms: S_2  and  C_5
REMARK    3  A    between atoms: C_8  and  N_9
REMARK    4  A    between atoms: C_10  and  O_11
REMARK                            x       y       z     vdW  Elec       q    Type
REMARK                         _______ _______ _______ _____ _____    ______ ____
ROOT
ATOM      5  C   UNL     1       3.586   1.789   0.167  0.00  0.00    +0.000 C 
ATOM      6  O   UNL     1       3.079   2.836  -0.688  0.00  0.00    +0.000 OA
ATOM      7  C   UNL     1       3.279   4.065   0.007  0.00  0.00    +0.000 C 
ATOM      8  C   UNL     1       3.088   3.752   1.483  0.00  0.00    +0.000 C 
ATOM     10  C   UNL     1       3.359   2.249   1.607  0.00  0.00    +0.000 C 
ENDROOT
BRANCH   8   9
ATOM      9  N   UNL     1       4.044   4.506   2.347  0.00  0.00    +0.000 N 
ATOM     14  H   UNL     1       5.011   4.209   2.142  0.00  0.00    +0.000 HD
ATOM     15  H   UNL     1       3.915   4.221   3.329  0.00  0.00    +0.000 HD
ATOM     16  H   UNL     1       3.973   5.528   2.287  0.00  0.00    +0.000 HD
ENDBRANCH   8   9
BRANCH   5   2
ATOM      2  S   UNL     1       2.880   0.139  -0.032  0.00  0.00    +0.000 S 
ATOM      3  O   UNL     1       1.444   0.231   0.039  0.00  0.00    +0.000 OA
ATOM      4  O   UNL     1       3.631  -0.746   0.832  0.00  0.00    +0.000 OA
BRANCH   2   1
ATOM      1  N   UNL     1       3.286  -0.271  -1.596  0.00  0.00    +0.000 NA
ATOM     12  H   UNL     1       2.474  -0.622  -2.110  0.00  0.00    +0.000 HD
ATOM     13  H   UNL     1       4.087  -0.904  -1.643  0.00  0.00    +0.000 HD
ENDBRANCH   2   1
ENDBRANCH   5   2
BRANCH  10  11
ATOM     11  O   UNL     1       4.522   2.045   2.431  0.00  0.00    +0.000 OA
ATOM     17  H   UNL     1       4.637   1.073   2.539  0.00  0.00    +0.000 HD
ENDBRANCH  10  11
TORSDOF 4
