REMARK  Name = 
REMARK  19 active torsions:
REMARK  status: ('A' for Active; 'I' for Inactive)
REMARK    1  A    between atoms: C_1  and  O_2
REMARK    2  A    between atoms: O_2  and  C_3
REMARK    3  A    between atoms: N_5  and  C_6
REMARK    4  A    between atoms: C_6  and  C_7
REMARK    5  A    between atoms: C_6  and  C_20
REMARK    6  A    between atoms: C_7  and  C_8
REMARK    7  A    between atoms: C_7  and  C_14
REMARK    8  A    between atoms: N_22  and  C_23
REMARK    9  A    between atoms: C_23  and  C_24
REMARK   10  A    between atoms: C_23  and  C_52
REMARK   11  A    between atoms: C_27  and  C_29
REMARK   12  A    between atoms: C_29  and  C_30
REMARK   13  A    between atoms: C_29  and  N_32
REMARK   14  A    between atoms: N_32  and  C_33
REMARK   15  A    between atoms: N_32  and  S_40
REMARK   16  A    between atoms: C_33  and  C_34
REMARK   17  A    between atoms: C_34  and  C_35
REMARK   18  A    between atoms: C_35  and  C_36
REMARK   19  A    between atoms: S_40  and  C_43
REMARK                            x       y       z     vdW  Elec       q    Type
REMARK                         _______ _______ _______ _____ _____    ______ ____
ROOT
ATOM     23  C   UNL     1      10.306   3.499  -1.064  0.00  0.00    +0.000 C 
ENDROOT
BRANCH  23  24
ATOM     24  C   UNL     1      10.719   4.702  -0.233  0.00  0.00    +0.000 C 
ATOM     25  C   UNL     1      11.102   5.562   0.293  0.00  0.00    +0.000 C 
ATOM     26  C   UNL     1      11.102   5.562   0.293  0.00  0.00    +0.000 C 
ATOM     27  C   UNL     1      11.102   5.562   0.293  0.00  0.00    +0.000 C 
ATOM     28  S   UNL     1      11.102   5.562   0.293  0.00  0.00    +0.000 S 
BRANCH  27  29
ATOM     29  C   UNL     1    -nan(ind)-nan(ind)-nan(ind)  0.00  0.00    +0.000 C 
BRANCH  29  30
ATOM     30  C   UNL     1    -nan(ind)-nan(ind)-nan(ind)  0.00  0.00    +0.000 C 
ATOM     31  O   UNL     1    -nan(ind)-nan(ind)-nan(ind)  0.00  0.00    +0.000 OA
ENDBRANCH  29  30
BRANCH  29  32
ATOM     32  N   UNL     1    -nan(ind)-nan(ind)-nan(ind)  0.00  0.00    +0.000 NA
BRANCH  32  40
ATOM     40  S   UNL     1    -nan(ind)-nan(ind)-nan(ind)  0.00  0.00    +0.000 S 
ATOM     41  O   UNL     1    -nan(ind)-nan(ind)-nan(ind)  0.00  0.00    +0.000 OA
ATOM     42  O   UNL     1    -nan(ind)-nan(ind)-nan(ind)  0.00  0.00    +0.000 OA
BRANCH  40  43
ATOM     43  C   UNL     1    -nan(ind)-nan(ind)-nan(ind)  0.00  0.00    +0.000 C 
ATOM     44  C   UNL     1    -nan(ind)-nan(ind)-nan(ind)  0.00  0.00    +0.000 C 
ATOM     45  C   UNL     1    -nan(ind)-nan(ind)-nan(ind)  0.00  0.00    +0.000 C 
ATOM     46  C   UNL     1    -nan(ind)-nan(ind)-nan(ind)  0.00  0.00    +0.000 C 
ATOM     47  N   UNL     1    -nan(ind)-nan(ind)-nan(ind)  0.00  0.00    +0.000 NA
ATOM     48  C   UNL     1    -nan(ind)-nan(ind)-nan(ind)  0.00  0.00    +0.000 C 
ATOM     49  S   UNL     1    -nan(ind)-nan(ind)-nan(ind)  0.00  0.00    +0.000 S 
ATOM     50  C   UNL     1    -nan(ind)-nan(ind)-nan(ind)  0.00  0.00    +0.000 C 
ATOM     51  C   UNL     1    -nan(ind)-nan(ind)-nan(ind)  0.00  0.00    +0.000 C 
ENDBRANCH  40  43
ENDBRANCH  32  40
BRANCH  32  33
ATOM     33  C   UNL     1    -nan(ind)-nan(ind)-nan(ind)  0.00  0.00    +0.000 C 
BRANCH  33  34
ATOM     34  C   UNL     1    -nan(ind)-nan(ind)-nan(ind)  0.00  0.00    +0.000 C 
BRANCH  34  35
ATOM     35  C   UNL     1    -nan(ind)-nan(ind)-nan(ind)  0.00  0.00    +0.000 C 
BRANCH  35  36
ATOM     36  C   UNL     1    -nan(ind)-nan(ind)-nan(ind)  0.00  0.00    +0.000 C 
ATOM     37  F   UNL     1    -nan(ind)-nan(ind)-nan(ind)  0.00  0.00    +0.000 F 
ATOM     38  F   UNL     1    -nan(ind)-nan(ind)-nan(ind)  0.00  0.00    +0.000 F 
ATOM     39  F   UNL     1    -nan(ind)-nan(ind)-nan(ind)  0.00  0.00    +0.000 F 
ENDBRANCH  35  36
ENDBRANCH  34  35
ENDBRANCH  33  34
ENDBRANCH  32  33
ENDBRANCH  29  32
ENDBRANCH  27  29
ENDBRANCH  23  24
BRANCH  23  22
ATOM     20  C   UNL     1       9.006   1.342  -0.845  0.00  0.00    +0.000 C 
ATOM     21  O   UNL     1       9.256   1.085  -2.064  0.00  0.00    +0.000 OA
ATOM     22  N   UNL     1       9.512   2.580  -0.236  0.00  0.00    +0.000 N 
ATOM     57  H   UNL     1       9.323   2.790   0.707  0.00  0.00    +0.000 HD
BRANCH  20   6
ATOM      6  C   UNL     1       8.183   0.368  -0.016  0.00  0.00    +0.000 C 
BRANCH   6   5
ATOM      3  C   UNL     1       6.155   1.654   0.828  0.00  0.00    +0.000 C 
ATOM      4  O   UNL     1       6.864   2.168   1.749  0.00  0.00    +0.000 OA
ATOM      5  N   UNL     1       6.759   0.713  -0.126  0.00  0.00    +0.000 N 
ATOM     56  H   UNL     1       6.209   0.314  -0.839  0.00  0.00    +0.000 HD
BRANCH   3   2
ATOM      1  C   UNL     1       4.195   2.895   1.644  0.00  0.00    +0.000 C 
ATOM      2  O   UNL     1       4.778   1.987   0.722  0.00  0.00    +0.000 OA
ENDBRANCH   3   2
ENDBRANCH   6   5
BRANCH   6   7
ATOM      7  C   UNL     1       8.403  -1.046  -0.530  0.00  0.00    +0.000 C 
BRANCH   7   8
ATOM      8  C   UNL     1       9.877  -1.402  -0.416  0.00  0.00    +0.000 A 
ATOM      9  C   UNL     1      10.434  -1.195   2.224  0.00  0.00    +0.000 A 
ATOM     10  C   UNL     1      10.752  -1.514   0.619  0.00  0.00    +0.000 A 
ATOM     11  C   UNL     1      12.277  -2.055  -0.005  0.00  0.00    +0.000 A 
ATOM     12  C   UNL     1      11.677  -2.129  -1.644  0.00  0.00    +0.000 A 
ATOM     13  C   UNL     1      10.388  -1.725  -1.658  0.00  0.00    +0.000 A 
ENDBRANCH   7   8
BRANCH   7  14
ATOM     14  C   UNL     1       7.581  -2.019   0.299  0.00  0.00    +0.000 A 
ATOM     15  C   UNL     1       6.253  -0.580   2.167  0.00  0.00    +0.000 A 
ATOM     16  C   UNL     1       6.722  -1.957   1.351  0.00  0.00    +0.000 A 
ATOM     17  C   UNL     1       6.178  -3.563   1.715  0.00  0.00    +0.000 A 
ATOM     18  C   UNL     1       7.118  -4.266   0.421  0.00  0.00    +0.000 A 
ATOM     19  C   UNL     1       7.809  -3.286  -0.202  0.00  0.00    +0.000 A 
ENDBRANCH   7  14
ENDBRANCH   6   7
ENDBRANCH  20   6
ENDBRANCH  23  22
BRANCH  23  52
ATOM     52  C   UNL     1       9.472   3.963  -2.248  0.00  0.00    +0.000 C 
ATOM     53  F   UNL     1       8.268   3.401  -2.189  0.00  0.00    +0.000 F 
ATOM     54  F   UNL     1       9.345   5.286  -2.209  0.00  0.00    +0.000 F 
ATOM     55  F   UNL     1      10.073   3.607  -3.380  0.00  0.00    +0.000 F 
ENDBRANCH  23  52
TORSDOF 18
